                                  MODFLOW-NWT-SWR1 
      U.S. GEOLOGICAL SURVEY MODULAR FINITE-DIFFERENCE GROUNDWATER-FLOW MODEL
                            VERSION 1.0.9 07/01/2014
                    BASED ON MODFLOW-2005 VERSION 1.11.00 08/30/2013

 LIST FILE: modflow_LRW.out
                         UNIT 5007

 OPENING modflow_LRW.hed
 FILE TYPE:DATA   UNIT 5030   STATUS:UNKNOWN
 FORMAT:FORMATTED              ACCESS:SEQUENTIAL          

 OPENING modflow_LRW.ccf
 FILE TYPE:DATA(BINARY)   UNIT 5040   STATUS:UNKNOWN
 FORMAT:BINARY                 ACCESS:SEQUENTIAL          
# Global Input Files                                                                                                                                                                                                                                                                                        

 OPENING modflow_LRW.dis
 FILE TYPE:DIS   UNIT 5010   STATUS:OLD    
 FORMAT:FORMATTED              ACCESS:SEQUENTIAL          
# Flow Process Input Files                                                                                                                                                                                                                                                                                  

 OPENING modflow_LRW.bas
 FILE TYPE:BAS6   UNIT 5001   STATUS:OLD    
 FORMAT:FORMATTED              ACCESS:SEQUENTIAL          

 OPENING modflow_LRW.upw
 FILE TYPE:UPW   UNIT 5011   STATUS:OLD    
 FORMAT:FORMATTED              ACCESS:SEQUENTIAL          

 OPENING modflow_LRW.rch
 FILE TYPE:RCH   UNIT 5018   STATUS:OLD    
 FORMAT:FORMATTED              ACCESS:SEQUENTIAL          

 OPENING modflow_LRW.riv
 FILE TYPE:RIV   UNIT 5008   STATUS:OLD    
 FORMAT:FORMATTED              ACCESS:SEQUENTIAL          

 OPENING modflow_LRW.nwt
 FILE TYPE:NWT   UNIT 5013   STATUS:OLD    
 FORMAT:FORMATTED              ACCESS:SEQUENTIAL          

 OPENING modflow_LRW.oc
 FILE TYPE:OC   UNIT 5022   STATUS:OLD    
 FORMAT:FORMATTED              ACCESS:SEQUENTIAL          

 OPENING modflow_LRW.lmt
 FILE TYPE:LMT6   UNIT 5019   STATUS:OLD    
 FORMAT:FORMATTED              ACCESS:SEQUENTIAL          

 OPENING modflow_LRW.evt
 FILE TYPE:EVT   UNIT 5020   STATUS:OLD    
 FORMAT:FORMATTED              ACCESS:SEQUENTIAL          

 OPENING modflow_LRW.drn
 FILE TYPE:DRN   UNIT 5021   STATUS:OLD    
 FORMAT:FORMATTED              ACCESS:SEQUENTIAL          

 OPENING modflow_LRW.wel
 FILE TYPE:WEL   UNIT 5023   STATUS:OLD    
 FORMAT:FORMATTED              ACCESS:SEQUENTIAL          

 BAS -- BASIC PACKAGE, VERSION 7, 5/2/2005 INPUT READ FROM UNIT 5001
 
 MODFLOW was compiled using mixed precision
 Precision of REAL variables:           6
 Precision of DOUBLE PRECISION variables:          15

 DISCRETIZATION INPUT DATA READ FROM UNIT 5010
 # Little River Watershed groundwater flow model																																																																																																																																							
 # Discretization (DIS) input file																																																																																																																																							
 # Prepared by Ryan Bailey, Colorado State University, April-May 2015																																																																																																																																				
 # Modified by Seonggyu Park, Colorado State University, Jan-2 2016																																																																																																																																						
    1 LAYERS       141 ROWS       136 COLUMNS
    1 STRESS PERIOD(S) IN SIMULATION
 MODEL TIME UNIT IS DAYS
 MODEL LENGTH UNIT IS METERS
  Confining bed flag for each layer:
   0

                     DELR =   200.000    

                     DELC =   200.000    



           TOP ELEVATION OF LAYER 1
 READING ON UNIT 5010 WITH FORMAT: (FREE)              



             MODEL LAYER BOTTOM EL. FOR LAYER   1
 READING ON UNIT 5010 WITH FORMAT: (FREE)              


 STRESS PERIOD     LENGTH       TIME STEPS     MULTIPLIER FOR DELT    SS FLAG
 ----------------------------------------------------------------------------
        1         5485.000          1                    1.000         SS

 STEADY-STATE SIMULATION



 
 # Little River Watershed groundwater flow model																																	
 # Basic (bas) input file																																																								
 # Prepared by Ryan Bailey, Colorado State University, April-May 2015																																																																																																																																				
 # Modified by Seonggyu Park, Colorado State University, Jan-1  2016																																																																																																																																					
 THE FREE FORMAT OPTION HAS BEEN SELECTED



                     BOUNDARY ARRAY FOR LAYER   1
 READING ON UNIT 5001 WITH FORMAT: (FREE)              

 AQUIFER HEAD WILL BE SET TO  -999.00     AT ALL NO-FLOW NODES (IBOUND=0).



                       INITIAL HEAD FOR LAYER   1
 READING ON UNIT 5001 WITH FORMAT: (FREE)              
 # Little River Watershed groundwater flow model
 #
 # Output Control (OC) input file
 # Prepared by Ryan Bailey, Colorado State University, April-May 2015

 OUTPUT CONTROL IS SPECIFIED ONLY AT TIME STEPS FOR WHICH OUTPUT IS DESIRED
 HEADS WILL BE SAVED WITH FORMAT: (213F10.2)          
 SAVED HEADS WILL BE LABELED
 COMPACT CELL-BY-CELL BUDGET FILES WILL BE WRITTEN
 AUXILIARY DATA WILL BE SAVED IN CELL-BY-CELL BUDGET FILES
 HEAD PRINT FORMAT CODE IS   0    DRAWDOWN PRINT FORMAT CODE IS   0
 HEADS WILL BE SAVED ON UNIT 5030    DRAWDOWNS WILL BE SAVED ON UNIT    0
 # NWT Input File
 # Test Problem 3 for MODFLOW-NWT
 #HEADTOL  FLUXTOL MAXITEROUT THICKFACT LINMETH IPRNWT IBOTAV OPTIONS DBDREDUCE DBDINCREASE DBDGAMMA MOMFACT BACKFLAG MAXBACKITER BACKTOL BACKREDUCE

 NWT1 -- Newton Solver, VERSION 1.0.9, 07/01/2014
         INPUT READ FROM UNIT***

 SPECIFIED OPTION:
 SOLVER INPUT VALUES ARE SPECIFIED BY USER
 ***XMD linear solver will be used***
 
   CONVERGENCE CRITERION OF   0.100000E-04 FOR HEAD SOLUTION
   AND A TOLERANCE OF   0.500000E-01 FOR FLOW SOLUTION AND 
   A MAXIMUM OF   100 OUTER ITERATIONS. 


   D-B-D REDUCTION FACTOR OF    0.900000E+00 AND 
   A D-B-D INCREASE FACTOR OF    0.100000E-04 AND 
   A D-B-D RELAXATION OF    0.000000E+00 AND 
   A MOMENTUM FACTOR OF    0.100000E+00 .


   BACKTRACKING IS ACTIVE 
   THE MAXIMUM NUMBER OF BACKTRACKS IS    30 AND 
   THE BACKTRACKING TOLERANCE IS    0.105000E+01 AND
   THE BACKTRACKING REDUCTION FACTOR IS    0.900000E+00

 XMD -- LINEAR SOLUTION BY XMD PACKAGE VERSION 1.30
     BY MOTOMU IBARAKI, OHIO STATE UNIVERSITY, COLOMBUS, OH
                 INPUT READ FROM UNIT***
 ACCELERATION METHOD                    (IACL) =         2
 NODE ORDERING FLAG                   (NORDER) =         1
 LEVEL OF FILL                         (LEVEL) =         3
 MAXIMUM NUMBER OF ORTHOGONALIZATIONS  (NORTH) =         7
 INDEX FOR USING REDUCED SYSTEM      (IREDSYS) =         1
 RESID. REDUCTION CONVERGE CRITERION  (RRCTOL) =  0.000000E+00
 INDEX FOR USING DROP TOLERANCE     (IDROPTOL) =         1
 DROP TOLERANCE VALUE                  (EPSRN) =  0.100000E-04
 CONVERGENCE CRITERIA OF           (HCLOSEXMD) =  0.100000E-04
 MAX. NUMBER OF LINEAR ITERATIONS  (MXITERXMD) =       200


 UPW1 -- UPSTREAM WEIGHTING FLOW PACKAGE, VERSION 1.0.6, 12/05/2012
         INPUT READ FROM UNIT***

 # Little River Watershed groundwater flow model
 #
 # Upstream Weighting (UPW) package input file
 # Prepared by Ryan Bailey, Colorado State University, April-May 2015
 CELL-BY-CELL FLOWS WILL BE SAVED ON UNIT   40
 No named parameters

   LAYER FLAGS:
 LAYER       LAYTYP          LAYAVG    CHANI           LAYVKA           LAYWET
 ---------------------------------------------------------------------------
    1             1             1     1.000E+00             1             0

   INTERPRETATION OF LAYER FLAGS:
                        INTERBLOCK     HORIZONTAL    DATA IN
         LAYER TYPE   TRANSMISSIVITY   ANISOTROPY   ARRAY VKA   WETTABILITY
 LAYER   (LAYTYP)        (LAYAVG)      (CHANI)     (LAYVKA)       (LAYWET)
 ---------------------------------------------------------------------------
    1   CONVERTIBLE   LOGARITHMIC     1.000E+00    ANISOTROPY  NON-WETTABLE

    HYD. COND. ALONG ROWS =   70.0000     FOR LAYER   1

  HORIZ. TO VERTICAL ANI. =  1.000000     FOR LAYER   1

 WEL -- WELL PACKAGE, VERSION 1.0.6, 12/05/2012 INPUT READ FROM UNIT 5023
 #Well package input file
 No named parameters
 MAXIMUM OF      8 ACTIVE WELLS AT ONE TIME
 AUXILIARY WELL VARIABLE: IFACE           
 No named parameters
  PHIRAMP WILL BE SET TO A DEFAULT VALUE OF 0.05
  WELLS WITH REDUCED PUMPING WILL BE REPORTED TO THE MAIN LISTING FILE


     0 Well parameters

 DRN -- DRAIN PACKAGE, VERSION 7, 5/2/2005 INPUT READ FROM UNIT 5021
 #Drain package input file
 No named parameters
 MAXIMUM OF    162 ACTIVE DRAINS AT ONE TIME


     0 Drain parameters

 RIV -- RIVER PACKAGE, VERSION 7, 5/2/2005 INPUT READ FROM UNIT 5008
 # Little River Watershed groundwater flow model								
 No named parameters
 MAXIMUM OF   1633 ACTIVE RIVER REACHES AT ONE TIME


     0 River parameters

 EVT -- EVAPOTRANSPIRATION PACKAGE, VERSION 7, 5/2/2005
         INPUT READ FROM UNIT 5020
 # EVT: Evapotranspiration package file created on 7/6/2018 by ModelMuse version 3.10.0.0.
 No named parameters
 OPTION 3 -- EVAPOTRANSPIRATION FROM HIGHEST ACTIVE NODE IN EACH VERTICAL COLUMN


     0 Evapotranspiration parameters

 RCH -- RECHARGE PACKAGE, VERSION 7, 5/2/2005 INPUT READ FROM UNIT 5018
 # Little River Watershed groundwater flow model
 No named parameters
 OPTION 3 -- RECHARGE TO HIGHEST ACTIVE NODE IN EACH VERTICAL COLUMN
 CELL-BY-CELL FLOWS WILL BE SAVED ON UNIT   40


     0 Recharge parameters


 ***Link-MT3DMS Package v7***
 OPENING LINK-MT3DMS OUTPUT FILE: modflow_LRW.hff                                                                                                                                                                                         
 ON UNIT NUMBER:   333
 FILE TYPE: FORMATTED  
 HEADER OPTION: EXTENDED
 ***Link-MT3DMS Package v7***

1
                            STRESS PERIOD NO.    1, LENGTH =   5485.000    
                            -----------------------------------------------

                              NUMBER OF TIME STEPS =     1

                               MULTIPLIER FOR DELT =     1.000

                            INITIAL TIME STEP SIZE =   5485.000    

 WELL NO.  LAYER   ROW   COL   STRESS RATE         IFACE           
 ------------------------------------------------------------------
      1      1     78     94     -1000.0           0.000    
      2      1     82     85     -1000.0           0.000    
      3      1     90     91     -1000.0           0.000    
      4      1     90    100     -1000.0           0.000    
      5      1     93     91     -1000.0           0.000    
      6      1     94    105     -1000.0           0.000    
      7      1     96     91     -1000.0           0.000    
      8      1     96    102     -1000.0           0.000    

      8 WELLS

 DRAIN NO.  LAYER   ROW   COL     DRAIN EL.  CONDUCTANCE         
 ----------------------------------------------------------------
      1      1     34     15       134.3          100.00    
      2      1     36     19       133.3          100.00    
      3      1     37     19       130.6          100.00    
      4      1     34     15       134.3          100.00    
      5      1     35     15       131.3          100.00    
      6      1     36     13       133.4          100.00    
      7      1     36     14       128.8          100.00    
      8      1     36     15       129.1          100.00    
      9      1     37     13       130.0          100.00    
     10      1     37     14       126.8          100.00    
     11      1     36     17       130.0          100.00    
     12      1     36     18       130.2          100.00    
     13      1     36     19       133.3          100.00    
     14      1     37     18       125.8          100.00    
     15      1     37     19       130.6          100.00    
     16      1     38     18       124.5          100.00    
     17      1     39     18       123.3          100.00    
     18      1     40     18       121.1          100.00    
     19      1     44     17       115.3          100.00    
     20      1     36     13       133.4          100.00    
     21      1     37     13       130.0          100.00    
     22      1     42     13       125.6          100.00    
     23      1     41     23       125.1          100.00    
     24      1     41     25       129.1          100.00    
     25      1     42     25       127.0          100.00    
     26      1     44     29       127.9          100.00    
     27      1     42     13       125.6          100.00    
     28      1     43     13       125.4          100.00    
     29      1     43     14       119.0          100.00    
     30      1     44     12       126.9          100.00    
     31      1     44     13       122.0          100.00    
     32      1     44     17       115.3          100.00    
     33      1     45     12       126.2          100.00    
     34      1     47     15       126.0          100.00    
     35      1     48     14       129.8          100.00    
     36      1     48     15       123.4          100.00    
     37      1     48     16       126.1          100.00    
     38      1     49     14       128.4          100.00    
     39      1     49     15       122.0          100.00    
     40      1     49     16       120.8          100.00    
     41      1     49     17       123.3          100.00    
     42      1     50     17       119.2          100.00    
     43      1     51     17       117.5          100.00    
     44      1     44     28       126.2          100.00    
     45      1     44     29       127.9          100.00    
     46      1     45     28       122.8          100.00    
     47      1     45     29       122.4          100.00    
     48      1     46     28       122.0          100.00    
     49      1     46     29       119.2          100.00    
     50      1     47     28       119.7          100.00    
     51      1     47     29       119.1          100.00    
     52      1     47     30       123.0          100.00    
     53      1     47     31       123.9          100.00    
     54      1     48     29       116.0          100.00    
     55      1     48     30       117.3          100.00    
     56      1     50     31       118.8          100.00    
     57      1     50     32       119.4          100.00    
     58      1     51     29       113.7          100.00    
     59      1     51     30       113.8          100.00    
     60      1     51     31       115.1          100.00    
     61      1     39     21       127.8          100.00    
     62      1     40     21       125.2          100.00    
     63      1     41     21       121.1          100.00    
     64      1     41     22       123.3          100.00    
     65      1     41     23       125.1          100.00    
     66      1     41     25       129.1          100.00    
     67      1     42     20       122.9          100.00    
     68      1     42     21       118.8          100.00    
     69      1     42     22       122.6          100.00    
     70      1     42     23       121.7          100.00    
     71      1     42     24       125.7          100.00    
     72      1     42     25       127.0          100.00    
     73      1     43     20       119.4          100.00    
     74      1     43     22       121.3          100.00    
     75      1     43     23       121.3          100.00    
     76      1     43     24       122.7          100.00    
     77      1     43     25       123.4          100.00    
     78      1     44     17       115.3          100.00    
     79      1     44     20       117.6          100.00    
     80      1     44     22       119.9          100.00    
     81      1     44     23       118.2          100.00    
     82      1     44     26       123.0          100.00    
     83      1     45     16       119.2          100.00    
     84      1     45     17       116.8          100.00    
     85      1     45     21       117.8          100.00    
     86      1     45     22       117.0          100.00    
     87      1     45     25       122.0          100.00    
     88      1     45     26       122.0          100.00    
     89      1     46     24       120.2          100.00    
     90      1     46     25       116.8          100.00    
     91      1     47     15       126.0          100.00    
     92      1     47     24       115.5          100.00    
     93      1     48     24       112.8          100.00    
     94      1     49     24       110.9          100.00    
     95      1     48      9       129.1          100.00    
     96      1     48     10       129.4          100.00    
     97      1     48     11       134.1          100.00    
     98      1     49     11       128.0          100.00    
     99      1     49     12       127.4          100.00    
    100      1     50     12       126.0          100.00    
    101      1     51     11       125.3          100.00    
    102      1     51     12       124.2          100.00    
    103      1     52     11       122.6          100.00    
    104      1     52     12       121.4          100.00    
    105      1     55     22       111.7          100.00    
    106      1     56     21       117.9          100.00    
    107      1     56     22       112.7          100.00    
    108      1     57     20       119.3          100.00    
    109      1     57     21       115.9          100.00    
    110      1     57     22       116.9          100.00    
    111      1     58     20       122.7          100.00    
    112      1     58     22       118.7          100.00    
    113      1     50     32       119.4          100.00    
    114      1     52     33       117.7          100.00    
    115      1     52     34       118.5          100.00    
    116      1     53     33       116.2          100.00    
    117      1     53     34       117.2          100.00    
    118      1     54     33       113.4          100.00    
    119      1     54     34       116.3          100.00    
    120      1     54     36       116.5          100.00    
    121      1     55     33       111.6          100.00    
    122      1     55     36       114.1          100.00    
    123      1     56     34       115.1          100.00    
    124      1     57     35       110.9          100.00    
    125      1     53     38       120.1          100.00    
    126      1     53     40       120.2          100.00    
    127      1     54     38       115.5          100.00    
    128      1     54     39       115.4          100.00    
    129      1     54     40       116.8          100.00    
    130      1     55     39       114.8          100.00    
    131      1     56     38       111.6          100.00    
    132      1     56     39       115.4          100.00    
    133      1     59     38       111.8          100.00    
    134      1     59     39       117.4          100.00    
    135      1     59     40       116.2          100.00    
    136      1     59     41       118.2          100.00    
    137      1     60     40       113.0          100.00    
    138      1     59     26       113.7          100.00    
    139      1     59     27       111.6          100.00    
    140      1     60     26       115.5          100.00    
    141      1     60     27       110.5          100.00    
    142      1     60     28       109.3          100.00    
    143      1     61     26       114.2          100.00    
    144      1     61     28       114.4          100.00    
    145      1     63     32       113.4          100.00    
    146      1     61     43       119.0          100.00    
    147      1     62     42       111.2          100.00    
    148      1     62     43       112.8          100.00    
    149      1     63     42       108.5          100.00    
    150      1     63     43       113.7          100.00    
    151      1     64     42       108.7          100.00    
    152      1     65     43       111.7          100.00    
    153      1     63     31       114.5          100.00    
    154      1     63     32       113.4          100.00    
    155      1     64     32       110.2          100.00    
    156      1     64     33       110.7          100.00    
    157      1     64     34       109.4          100.00    
    158      1     64     35       106.4          100.00    
    159      1     65     33       110.2          100.00    
    160      1     65     34       107.9          100.00    
    161      1     65     35       107.9          100.00    
    162      1     65     43       111.7          100.00    

    162 DRAINS

 REACH NO.  LAYER   ROW   COL     STAGE      CONDUCTANCE     BOTTOM EL.         
 -------------------------------------------------------------------------------
      1      1      5     20       126.3           1787.           126.1    
      2      1      5     21       126.6           1804.           126.4    
      3      1      6     21       125.3           1835.           125.1    
      4      1      6     22       127.9           383.3           127.8    
      5      1      7      4       132.3           98.98           132.0    
      6      1      7      5       131.9           2028.           131.7    
      7      1      7     22       125.1           3560.           124.9    
      8      1      8      5       131.6           1410.           131.4    
      9      1      8      6       130.0           3635.           129.8    
     10      1      8     22       127.2           678.2           126.9    
     11      1      8     23       123.5           4666.           123.2    
     12      1      8     24       124.6           1727.           124.4    
     13      1      9      6       129.7           395.9           129.5    
     14      1      9      7       128.6           4031.           128.3    
     15      1      9      8       132.7           198.0           132.5    
     16      1      9     10       132.6           940.8           132.5    
     17      1      9     24       122.1           3617.           121.8    
     18      1      9     25       123.3           1930.           123.1    
     19      1     10      8       127.6           3611.           127.4    
     20      1     10     10       130.0           1504.           129.8    
     21      1     10     25       121.7           2910.           121.5    
     22      1     10     26       121.0           4127.           120.8    
     23      1     10     27       123.6           1715.           123.3    
     24      1     11      8       128.1           844.9           127.9    
     25      1     11      9       126.7           3041.           126.5    
     26      1     11     11       126.3           2950.           126.1    
     27      1     11     12       127.3           781.3           127.2    
     28      1     11     27       120.0           4492.           119.8    
     29      1     12      9       124.9           3147.           124.7    
     30      1     12     12       125.3           3123.           125.1    
     31      1     12     27       122.2           1154.           122.0    
     32      1     12     28       119.2           4260.           118.9    
     33      1     13      9       124.7           1941.           124.5    
     34      1     13     10       125.5           1410.           125.2    
     35      1     13     12       123.8           2354.           123.7    
     36      1     13     28       120.1           2092.           119.8    
     37      1     13     29       119.7           1895.           119.5    
     38      1     14     10       122.9           3186.           122.7    
     39      1     14     11       124.4           1294.           124.2    
     40      1     14     12       123.0           2745.           122.8    
     41      1     14     29       117.8           4162.           117.6    
     42      1     15     11       121.3           3234.           121.1    
     43      1     15     12       121.4           2446.           121.2    
     44      1     15     20       125.3           2264.           125.1    
     45      1     15     21       124.7           3250.           124.5    
     46      1     15     22       125.7           984.3           125.5    
     47      1     15     29       118.2           713.0           118.0    
     48      1     15     30       117.0           4231.           116.7    
     49      1     15     33       122.3           452.5           122.1    
     50      1     16     11       121.5           2429.           121.3    
     51      1     16     12       119.6           5426.           119.3    
     52      1     16     22       122.3           3373.           122.1    
     53      1     16     23       121.0           3650.           120.8    
     54      1     16     24       120.0           3189.           119.7    
     55      1     16     25       120.0           2743.           119.8    
     56      1     16     30       117.3           1322.           117.0    
     57      1     16     31       116.9           2666.           116.7    
     58      1     16     33       121.8           1357.           121.7    
     59      1     17     12       119.9           2966.           119.6    
     60      1     17     13       119.4           4637.           119.1    
     61      1     17     25       119.0           630.7           118.8    
     62      1     17     26       120.0           3835.           119.8    
     63      1     17     27       123.6           630.7           123.4    
     64      1     17     31       115.6           3953.           115.3    
     65      1     17     33       121.7           715.8           121.5    
     66      1     17     34       121.5           640.8           121.4    
     67      1     17     35       121.7           899.6           121.5    
     68      1     18     13       119.5           3064.           119.2    
     69      1     18     14       120.6           3359.           120.2    
     70      1     18     27       117.8           3297.           117.6    
     71      1     18     28       118.5           1800.           118.2    
     72      1     18     31       115.1           3814.           114.9    
     73      1     18     33       121.4           515.1           121.2    
     74      1     18     34       118.8           3256.           118.7    
     75      1     18     44       121.5           1409.           121.3    
     76      1     18     45       120.9           100.7           120.7    
     77      1     18     53       121.2           1368.           121.0    
     78      1     19      5       127.6           106.4           127.4    
     79      1     19     14       118.1           4072.           117.8    
     80      1     19     15       120.2           2007.           119.9    
     81      1     19     28       115.9           2128.           115.7    
     82      1     19     29       115.1           3650.           114.9    
     83      1     19     30       115.1           1472.           114.8    
     84      1     19     31       114.1           3570.           113.9    
     85      1     19     34       118.5           2956.           118.3    
     86      1     19     43       119.1           1350.           118.8    
     87      1     19     44       118.7           2897.           118.5    
     88      1     19     52       120.3           1426.           120.1    
     89      1     19     53       120.8           98.65           120.7    
     90      1     20      5       125.1           3884.           124.9    
     91      1     20      6       126.9           638.7           126.7    
     92      1     20     15       118.6           5636.           118.2    
     93      1     20     30       114.6           2271.           114.3    
     94      1     20     31       113.1           7709.           112.9    
     95      1     20     34       118.1           2663.           117.9    
     96      1     20     35       119.0           343.4           118.8    
     97      1     20     43       117.8           3024.           117.6    
     98      1     20     51       117.7           1396.           117.6    
     99      1     20     52       118.0           1499.           117.9    
    100      1     21      6       125.4           2871.           125.2    
    101      1     21      7       124.8           3645.           124.6    
    102      1     21     15       118.1           5341.           117.8    
    103      1     21     31       113.2           6604.           112.9    
    104      1     21     34       117.7           900.2           117.5    
    105      1     21     35       115.6           1855.           115.4    
    106      1     21     43       117.9           2848.           117.7    
    107      1     21     51       116.6           2493.           116.4    
    108      1     22      7       125.0           394.6           124.7    
    109      1     22      8       123.4           4180.           123.2    
    110      1     22      9       126.6           1303.           126.4    
    111      1     22     15       118.8           3588.           118.5    
    112      1     22     16       116.5           4776.           116.2    
    113      1     22     31       113.7           1548.           113.4    
    114      1     22     32       112.5           6568.           112.2    
    115      1     22     34       116.8           875.1           116.6    
    116      1     22     35       114.8           1704.           114.6    
    117      1     22     43       117.9           741.4           117.7    
    118      1     22     44       116.1           3668.           115.8    
    119      1     22     51       115.6           2478.           115.4    
    120      1     22     53       118.9           45.31           118.8    
    121      1     23      9       121.9           3032.           121.7    
    122      1     23     10       122.8           3478.           122.6    
    123      1     23     11       124.5           1999.           124.3    
    124      1     23     16       116.0           5341.           115.7    
    125      1     23     32       112.1           5395.           111.8    
    126      1     23     33       113.6           851.8           113.3    
    127      1     23     34       115.3           1482.           115.1    
    128      1     23     35       114.3           1097.           114.1    
    129      1     23     44       116.6           1890.           116.4    
    130      1     23     45       117.3           1488.           117.1    
    131      1     23     51       114.2           2478.           114.0    
    132      1     23     52       117.2           1551.           117.1    
    133      1     23     53       118.6           181.2           118.5    
    134      1     24     11       121.6           1573.           121.4    
    135      1     24     12       119.7           3759.           119.5    
    136      1     24     13       119.7           3198.           119.5    
    137      1     24     14       120.6           2954.           120.3    
    138      1     24     15       119.5           545.2           119.2    
    139      1     24     16       115.7           5837.           115.4    
    140      1     24     17       115.2           4863.           114.9    
    141      1     24     33       110.8           6467.           110.5    
    142      1     24     35       113.3           2806.           113.1    
    143      1     24     36       115.5           1174.           115.3    
    144      1     24     37       117.0           870.7           116.8    
    145      1     24     45       115.2           3201.           114.9    
    146      1     24     51       113.3           4568.           113.1    
    147      1     24     52       116.0           797.7           115.9    
    148      1     25     14       118.9           212.9           118.6    
    149      1     25     15       117.2           2684.           117.0    
    150      1     25     16       117.0           1945.           116.8    
    151      1     25     17       116.2           4651.           115.8    
    152      1     25     18       116.2           4243.           115.9    
    153      1     25     20       119.0           660.9           118.9    
    154      1     25     33       110.2           6137.           109.9    
    155      1     25     34       112.3           1566.           112.1    
    156      1     25     35       112.9           1390.           112.7    
    157      1     25     36       113.6           2091.           113.5    
    158      1     25     45       114.9           3378.           114.7    
    159      1     25     51       113.7           3874.           113.4    
    160      1     26     15       121.6           1903.           121.4    
    161      1     26     16       120.4           102.1           120.2    
    162      1     26     18       116.1           8020.           115.8    
    163      1     26     19       116.8           465.1           116.4    
    164      1     26     20       116.5           1385.           116.4    
    165      1     26     21       116.8           300.5           116.6    
    166      1     26     33       111.7           5075.           111.4    
    167      1     26     34       110.3           2770.           110.1    
    168      1     26     35       111.2           2219.           111.0    
    169      1     26     36       112.5           1975.           112.3    
    170      1     26     45       115.2           658.0           115.0    
    171      1     26     46       113.3           2543.           113.1    
    172      1     26     51       112.8           3775.           112.6    
    173      1     26     54       119.2           1637.           119.1    
    174      1     27     15       120.8           1579.           120.6    
    175      1     27     19       116.1           7135.           115.7    
    176      1     27     20       113.9           5963.           113.7    
    177      1     27     21       112.8           9949.           112.5    
    178      1     27     22       113.8           1377.           113.3    
    179      1     27     27       115.8           1661.           115.6    
    180      1     27     34       110.4           6752.           110.1    
    181      1     27     35       109.3           7424.           109.1    
    182      1     27     36       109.8           1975.           109.6    
    183      1     27     46       112.7           3467.           112.5    
    184      1     27     51       112.2           5219.           112.0    
    185      1     27     52       113.8           1586.           113.7    
    186      1     27     53       115.2           1691.           115.1    
    187      1     27     54       117.4           86.77           117.3    
    188      1     28     15       124.0           1594.           123.8    
    189      1     28     20       116.9           811.7           116.8    
    190      1     28     21       112.7           1560.           112.6    
    191      1     28     22       113.1           7175.           112.7    
    192      1     28     23       112.6           8946.           112.2    
    193      1     28     24       112.6           6520.           112.2    
    194      1     28     27       113.8           1470.           113.6    
    195      1     28     28       114.9           658.2           114.7    
    196      1     28     35       110.0           2543.           109.6    
    197      1     28     36       107.8          0.1122E+05       107.4    
    198      1     28     37       109.5           4169.           109.2    
    199      1     28     46       113.2           2715.           112.9    
    200      1     28     47       112.4           604.0           112.2    
    201      1     28     50       111.4           5016.           111.1    
    202      1     28     51       114.5           405.7           114.2    
    203      1     29     15       124.9           778.2           124.8    
    204      1     29     20       117.1           461.9           117.0    
    205      1     29     24       113.6           4906.           113.2    
    206      1     29     25       112.5           9261.           112.1    
    207      1     29     26       112.5           8473.           112.1    
    208      1     29     27       111.7           9011.           111.3    
    209      1     29     28       112.1           1624.           112.0    
    210      1     29     30       110.7           8037.           110.2    
    211      1     29     31       110.5          0.1007E+05       110.1    
    212      1     29     32       109.9           9684.           109.5    
    213      1     29     33       108.7          0.1142E+05       108.3    
    214      1     29     37       107.6           4353.           107.2    
    215      1     29     38       107.5           8031.           107.1    
    216      1     29     39       109.8           3059.           109.3    
    217      1     29     47       110.2           3526.           110.0    
    218      1     29     49       110.9           3757.           110.6    
    219      1     29     50       110.5           4057.           110.2    
    220      1     30     27       112.3           4893.           111.9    
    221      1     30     28       110.2          0.1014E+05       109.8    
    222      1     30     29       110.1           8661.           109.6    
    223      1     30     30       112.1           3564.           111.6    
    224      1     30     33       110.1           4061.           109.7    
    225      1     30     34       108.8           8946.           108.3    
    226      1     30     35       112.0           1747.           111.6    
    227      1     30     39       106.6           7733.           106.2    
    228      1     30     47       110.3           5990.           110.0    
    229      1     30     48       109.6           4687.           109.3    
    230      1     30     49       110.7           1434.           110.4    
    231      1     31     34       108.7           3635.           108.2    
    232      1     31     35       107.3           9387.           106.9    
    233      1     31     36       109.0           4044.           108.5    
    234      1     31     39       106.6           8180.           106.2    
    235      1     31     47       109.5           8125.           109.1    
    236      1     32     36       106.6          0.1047E+05       106.1    
    237      1     32     39       108.6           2039.           108.2    
    238      1     32     40       107.0          0.1102E+05       106.6    
    239      1     32     41       110.7           2549.           110.3    
    240      1     32     47       108.4           7556.           108.0    
    241      1     32     56       116.6           1830.           116.4    
    242      1     32     57       115.6           1439.           115.4    
    243      1     33     36       107.2           8323.           106.7    
    244      1     33     37       106.9          0.1182E+05       106.5    
    245      1     33     38       108.9           1953.           108.5    
    246      1     33     40       108.2           3754.           107.8    
    247      1     33     41       107.6           4874.           107.2    
    248      1     33     47       109.9           4125.           109.5    
    249      1     33     48       108.5           4035.           108.1    
    250      1     33     56       116.0           2551.           115.8    
    251      1     34     24       122.0           1949.           121.8    
    252      1     34     25       121.8           2564.           121.6    
    253      1     34     38       106.3          0.1031E+05       105.8    
    254      1     34     39       108.3           2391.           107.9    
    255      1     34     40       109.2           1517.           108.8    
    256      1     34     41       106.4           7671.           106.0    
    257      1     34     48       107.6           7354.           107.3    
    258      1     34     56       114.2           2700.           114.0    
    259      1     35     25       121.0           764.8           120.9    
    260      1     35     26       120.9           1905.           120.8    
    261      1     35     39       106.2          0.1004E+05       105.8    
    262      1     35     40       105.7          0.1284E+05       105.2    
    263      1     35     48       106.8           3576.           106.4    
    264      1     35     49       106.7          0.1062E+05       106.4    
    265      1     35     56       114.2           2675.           114.0    
    266      1     36     26       118.8           1179.           118.7    
    267      1     36     27       117.8           2457.           117.7    
    268      1     36     28       119.3           1423.           119.1    
    269      1     36     40       104.5          0.1503E+05       104.1    
    270      1     36     41       106.6           4558.           106.0    
    271      1     36     49       105.4           9500.           105.1    
    272      1     36     55       117.3           1209.           117.1    
    273      1     36     56       113.7           2038.           113.5    
    274      1     36     61       112.8           2956.           112.6    
    275      1     37     11       126.5           2118.           126.3    
    276      1     37     28       115.7           1470.           115.5    
    277      1     37     29       116.3           1923.           116.1    
    278      1     37     31       115.9           1020.           115.7    
    279      1     37     32       114.7           453.8           114.4    
    280      1     37     33       112.3           443.2           112.0    
    281      1     37     34       111.6           443.2           111.3    
    282      1     37     35       110.5           643.9           110.2    
    283      1     37     36       110.2           4265.           110.0    
    284      1     37     37       110.8           1897.           110.5    
    285      1     37     38       111.3           284.0           111.0    
    286      1     37     41       104.5          0.1382E+05       104.0    
    287      1     37     49       105.1           2347.           104.8    
    288      1     37     50       106.6           5208.           106.2    
    289      1     37     55       116.0           2924.           115.8    
    290      1     37     60       112.3           2880.           112.1    
    291      1     37     61       111.5           601.6           111.2    
    292      1     38     11       126.8           544.6           126.7    
    293      1     38     12       126.2           1596.           126.1    
    294      1     38     14       128.1           1156.           128.0    
    295      1     38     29       114.7           726.0           114.5    
    296      1     38     30       112.6           3112.           112.4    
    297      1     38     31       111.9           1856.           111.7    
    298      1     38     32       111.2           5846.           111.0    
    299      1     38     33       110.3           4321.           110.1    
    300      1     38     34       110.3           3822.           110.0    
    301      1     38     35       109.7           3621.           109.4    
    302      1     38     37       107.0           2617.           106.7    
    303      1     38     38       105.8           4189.           105.5    
    304      1     38     39       106.1           4806.           105.8    
    305      1     38     40       107.8           2507.           107.5    
    306      1     38     41       105.3          0.1481E+05       104.7    
    307      1     38     49       104.4           5097.           104.1    
    308      1     38     50       104.9           3264.           104.5    
    309      1     38     55       113.1           2700.           112.9    
    310      1     38     60       111.7           3159.           111.4    
    311      1     39     12       124.3           2085.           124.2    
    312      1     39     14       126.4           1735.           126.2    
    313      1     39     29       115.5           1194.           115.4    
    314      1     39     30       115.5           1418.           115.4    
    315      1     39     31       116.8           544.7           116.7    
    316      1     39     32       114.7           632.9           114.6    
    317      1     39     40       105.1           4314.           104.9    
    318      1     39     41       103.8          0.1906E+05       103.3    
    319      1     39     49       103.8           6952.           103.4    
    320      1     39     55       110.6           2551.           110.4    
    321      1     39     60       109.3           3100.           109.1    
    322      1     40     12       123.7           765.6           123.6    
    323      1     40     13       122.6           2309.           122.4    
    324      1     40     14       125.6           639.4           125.4    
    325      1     40     15       125.5           1217.           125.4    
    326      1     40     41       105.9           941.2           105.2    
    327      1     40     42       104.0          0.1987E+05       103.3    
    328      1     40     43       106.6           1513.           105.9    
    329      1     40     49       106.2           3465.           105.8    
    330      1     40     50       103.8           8025.           103.5    
    331      1     40     51       103.4           391.2           103.0    
    332      1     40     55       107.6           2700.           107.4    
    333      1     40     60       108.9           3100.           108.7    
    334      1     41     14       122.3           2141.           122.2    
    335      1     41     15       123.6           1607.           123.5    
    336      1     41     18       122.5           1240.           122.3    
    337      1     41     43       103.8          0.1475E+05       103.2    
    338      1     41     44       103.4          0.1456E+05       102.7    
    339      1     41     45       105.2          0.1270E+05       104.6    
    340      1     41     51       103.3           8070.           102.9    
    341      1     41     52       103.4           5556.           103.1    
    342      1     41     55       106.2           2973.           106.0    
    343      1     41     60       107.9           3012.           107.6    
    344      1     42     14       121.6           4115.           121.4    
    345      1     42     15       122.1           97.48           122.0    
    346      1     42     17       123.5           97.33           123.4    
    347      1     42     18       121.6           1422.           121.4    
    348      1     42     45       103.4           4848.           102.8    
    349      1     42     46       104.0          0.1669E+05       103.4    
    350      1     42     47       105.4          0.1527E+05       104.7    
    351      1     42     48       105.7          0.1393E+05       105.0    
    352      1     42     52       103.5           2806.           103.1    
    353      1     42     53       103.4           7500.           103.0    
    354      1     42     55       104.3           3234.           104.1    
    355      1     42     60       106.4           3365.           106.2    
    356      1     43     14       121.3           1565.           121.1    
    357      1     43     15       119.6           3570.           119.4    
    358      1     43     16       119.5           914.6           119.3    
    359      1     43     17       120.1           887.8           119.9    
    360      1     43     18       120.7           887.8           120.6    
    361      1     43     48       105.4           2909.           104.7    
    362      1     43     49       103.5          0.1960E+05       102.9    
    363      1     43     53       102.4           2470.           102.1    
    364      1     43     54       102.1           7433.           101.7    
    365      1     43     55       103.9           3023.           103.7    
    366      1     43     58       108.0           2255.           107.8    
    367      1     43     59       104.8           3159.           104.6    
    368      1     43     60       107.0           885.2           106.8    
    369      1     43     65       113.0           337.8           112.8    
    370      1     43     66       112.4           772.8           112.2    
    371      1     43     68       113.1           360.5           113.0    
    372      1     44     16       118.6           2626.           118.4    
    373      1     44     17       117.7           6406.           117.4    
    374      1     44     18       119.2           1008.           118.9    
    375      1     44     49       102.9           4965.           102.2    
    376      1     44     50       101.9          0.1612E+05       101.3    
    377      1     44     51       103.3           4255.           102.6    
    378      1     44     54       101.0           8048.           100.7    
    379      1     44     55       102.0           2058.           101.8    
    380      1     44     56       103.6           1003.           103.4    
    381      1     44     57       104.8           4084.           104.5    
    382      1     44     58       103.5           1653.           103.2    
    383      1     44     65       110.4           1774.           110.2    
    384      1     44     68       112.0           2338.           111.9    
    385      1     45     18       116.8           4607.           116.4    
    386      1     45     19       116.3           6235.           115.9    
    387      1     45     20       117.9           1903.           117.6    
    388      1     45     51       99.82          0.1754E+05       99.19    
    389      1     45     54       101.0           8178.           100.6    
    390      1     45     56       101.6           3394.           101.3    
    391      1     45     65       109.6           1790.           109.4    
    392      1     45     67       110.6           858.6           110.4    
    393      1     45     68       110.0           2506.           109.9    
    394      1     46     20       115.3           5830.           115.0    
    395      1     46     21       116.0           4667.           115.7    
    396      1     46     37       118.6           917.3           118.3    
    397      1     46     38       115.3           3143.           115.0    
    398      1     46     39       116.5           2111.           116.2    
    399      1     46     51       100.7           5817.           100.1    
    400      1     46     52       101.1          0.1088E+05       100.5    
    401      1     46     54       101.3           3499.           100.9    
    402      1     46     55       100.7           6067.           100.4    
    403      1     46     56       101.5           3193.           101.3    
    404      1     46     65       111.1           400.9           110.9    
    405      1     46     66       107.6           2791.           107.4    
    406      1     46     67       108.4           1821.           108.2    
    407      1     47     21       114.1           3660.           113.7    
    408      1     47     22       115.3           2472.           114.9    
    409      1     47     36       118.7           2792.           118.4    
    410      1     47     37       117.5           3013.           117.3    
    411      1     47     38       115.2           949.9           115.0    
    412      1     47     39       112.6           1362.           112.3    
    413      1     47     40       112.3           3637.           112.1    
    414      1     47     41       113.7           2595.           113.5    
    415      1     47     46       108.5           1645.           108.3    
    416      1     47     47       108.5           1585.           108.2    
    417      1     47     49       105.9           2443.           105.6    
    418      1     47     50       104.4           949.9           104.2    
    419      1     47     52       100.7          0.1527E+05       100.1    
    420      1     47     55       100.7           8220.           100.3    
    421      1     47     56       101.7           1181.           101.3    
    422      1     47     66       107.1           3391.           106.9    
    423      1     48     22       113.8           6131.           113.5    
    424      1     48     28       119.8           1272.           119.6    
    425      1     48     41       111.4           1808.           111.2    
    426      1     48     42       110.6           3441.           110.3    
    427      1     48     43       108.7           4028.           108.5    
    428      1     48     44       107.8           3148.           107.6    
    429      1     48     45       107.4           3734.           107.2    
    430      1     48     46       107.6           2399.           107.4    
    431      1     48     47       105.9           2508.           105.7    
    432      1     48     48       104.4           3734.           104.1    
    433      1     48     49       104.6           1959.           104.3    
    434      1     48     50       103.3           2556.           103.0    
    435      1     48     51       102.5           4533.           102.2    
    436      1     48     52       101.4           9724.           101.0    
    437      1     48     53       100.8          0.2013E+05       100.4    
    438      1     48     54       101.1           5512.           100.6    
    439      1     48     56       100.9          0.1052E+05       100.4    
    440      1     48     65       107.2           2870.           106.9    
    441      1     48     66       107.5           1798.           107.3    
    442      1     49     22       116.4           654.5           116.0    
    443      1     49     23       113.1           7854.           112.8    
    444      1     49     28       117.1           2301.           116.9    
    445      1     49     52       101.6           2280.           101.4    
    446      1     49     54       101.4          0.1441E+05       100.7    
    447      1     49     55       101.0           8840.           100.4    
    448      1     49     56       100.7           6900.           100.2    
    449      1     49     64       105.8           2772.           105.6    
    450      1     49     65       106.6           1928.           106.4    
    451      1     50     23       113.7           1248.           113.4    
    452      1     50     24       112.0           6122.           111.6    
    453      1     50     28       115.5           2570.           115.3    
    454      1     50     54       101.7           1615.           101.5    
    455      1     50     55       100.0          0.2825E+05       99.48    
    456      1     50     64       104.2           4521.           104.0    
    457      1     51     24       111.3           6441.           110.9    
    458      1     51     28       114.8           2215.           114.7    
    459      1     51     29       116.0           870.3           115.8    
    460      1     51     53       102.1           2838.           101.9    
    461      1     51     54       102.5           1541.           102.3    
    462      1     51     55       102.1           4780.           101.4    
    463      1     51     56       100.1          0.2277E+05       99.30    
    464      1     51     57       100.3           5126.           99.56    
    465      1     51     64       103.4           3465.           103.2    
    466      1     52     12       123.7           1323.           123.5    
    467      1     52     18       117.0           1278.           116.9    
    468      1     52     24       112.4           3617.           112.1    
    469      1     52     25       110.6           4323.           110.3    
    470      1     52     28       116.4           1430.           116.2    
    471      1     52     29       112.7           870.3           112.5    
    472      1     52     50       109.9           710.6           109.7    
    473      1     52     51       107.7           2236.           107.6    
    474      1     52     52       103.9           2933.           103.7    
    475      1     52     53       104.5           601.5           104.3    
    476      1     52     57       100.2          0.2220E+05       99.48    
    477      1     52     64       102.6           4702.           102.4    
    478      1     52     65       103.6           1342.           103.4    
    479      1     52     66       106.0           1420.           105.9    
    480      1     52     67       107.7           820.2           107.5    
    481      1     53     12       122.5           1916.           122.3    
    482      1     53     13       122.2           978.8           122.0    
    483      1     53     14       119.7           2757.           119.6    
    484      1     53     15       118.2           2346.           118.0    
    485      1     53     16       117.9           2506.           117.7    
    486      1     53     17       117.3           780.8           117.1    
    487      1     53     18       115.7           1358.           115.6    
    488      1     53     19       116.0           402.0           115.9    
    489      1     53     25       111.9           2868.           111.5    
    490      1     53     26       110.5           5072.           110.2    
    491      1     53     28       115.9           347.4           115.7    
    492      1     53     29       112.7           2223.           112.5    
    493      1     53     46       110.2           2009.           110.1    
    494      1     53     47       109.6           1970.           109.4    
    495      1     53     48       108.9           1796.           108.8    
    496      1     53     49       106.5           1883.           106.3    
    497      1     53     50       106.7           1363.           106.5    
    498      1     53     51       105.4           1715.           105.3    
    499      1     53     56       100.6          0.2657E+05       99.82    
    500      1     53     57       101.7           4214.           100.9    
    501      1     53     64       102.4           2950.           102.1    
    502      1     53     65       105.0           3298.           104.7    
    503      1     54     13       120.9           1927.           120.7    
    504      1     54     14       120.6           445.6           120.4    
    505      1     54     17       116.9           2068.           116.7    
    506      1     54     18       115.9           2506.           115.7    
    507      1     54     19       115.1           2995.           114.9    
    508      1     54     20       114.4           3757.           114.1    
    509      1     54     21       113.4           4164.           113.1    
    510      1     54     22       113.6           3789.           113.4    
    511      1     54     26       110.7           4366.           110.4    
    512      1     54     27       111.3           1455.           111.0    
    513      1     54     28       113.2           1673.           113.1    
    514      1     54     29       112.2           762.0           112.0    
    515      1     54     51       105.2           470.0           105.1    
    516      1     54     56       99.81          0.2352E+05       99.05    
    517      1     54     64       101.5           4456.           101.2    
    518      1     54     65       105.6           1543.           105.3    
    519      1     54     73       111.2           3954.           110.9    
    520      1     55     22       114.0           1263.           113.8    
    521      1     55     23       112.2           4737.           112.0    
    522      1     55     24       112.5           4460.           112.2    
    523      1     55     25       112.3           3831.           112.0    
    524      1     55     26       110.1           3942.           109.8    
    525      1     55     27       109.6           5938.           109.3    
    526      1     55     28       109.8           2570.           109.6    
    527      1     55     56       99.27          0.1994E+05       98.51    
    528      1     55     63       101.1           2436.           100.8    
    529      1     55     64       102.3           3450.           102.0    
    530      1     55     73       110.0           4295.           109.7    
    531      1     56     27       109.0           5962.           108.7    
    532      1     56     28       108.0          0.1057E+05       107.7    
    533      1     56     33       113.3           1837.           113.1    
    534      1     56     54       102.7           1160.           102.5    
    535      1     56     55       101.0           1801.           100.9    
    536      1     56     56       98.63          0.2237E+05       98.07    
    537      1     56     57       98.90          0.1787E+05       98.13    
    538      1     56     63       100.4           5478.           100.1    
    539      1     56     73       109.9           3897.           109.7    
    540      1     57     28       109.6           4697.           109.2    
    541      1     57     29       106.8           9106.           106.4    
    542      1     57     33       112.0           2092.           111.8    
    543      1     57     37       115.8           138.8           115.6    
    544      1     57     38       112.5           1846.           112.3    
    545      1     57     53       104.9           951.7           104.8    
    546      1     57     54       103.1           657.2           102.9    
    547      1     57     57       99.34           4837.           98.57    
    548      1     57     58       98.19          0.1858E+05       97.42    
    549      1     57     59       97.91          0.2300E+05       97.14    
    550      1     57     60       98.78           8778.           98.01    
    551      1     57     63       101.1           5205.           100.8    
    552      1     57     72       110.1           2226.           109.9    
    553      1     57     73       108.5           2992.           108.2    
    554      1     58     29       108.1           4924.           107.8    
    555      1     58     30       106.2           7133.           105.9    
    556      1     58     33       112.6           578.8           112.5    
    557      1     58     34       110.1           1387.           110.0    
    558      1     58     37       112.6           1855.           112.5    
    559      1     58     38       112.1           494.1           111.9    
    560      1     58     60       97.75          0.2435E+05       96.98    
    561      1     58     63       101.2           1725.           100.9    
    562      1     58     64       98.87           3866.           98.58    
    563      1     58     71       108.6           2534.           108.3    
    564      1     58     72       105.7           3246.           105.5    
    565      1     59     28       112.0           1086.           111.8    
    566      1     59     29       109.0           1491.           108.8    
    567      1     59     30       110.3           2182.           109.9    
    568      1     59     31       106.9           9471.           106.5    
    569      1     59     32       108.0           2727.           107.6    
    570      1     59     34       110.3           1947.           110.1    
    571      1     59     37       109.9           2064.           109.7    
    572      1     59     60       98.73           7079.           97.96    
    573      1     59     61       97.83          0.1592E+05       97.06    
    574      1     59     63       99.01           2330.           98.72    
    575      1     59     64       98.99           2603.           98.70    
    576      1     59     70       103.8           3801.           103.6    
    577      1     59     71       103.5           2323.           103.3    
    578      1     60     32       106.2           7223.           105.7    
    579      1     60     33       106.7           9910.           106.2    
    580      1     60     34       108.6           5637.           108.3    
    581      1     60     37       108.1           2745.           107.9    
    582      1     60     61       101.1          0.1198E+05       100.3    
    583      1     60     62       99.11          0.1650E+05       98.34    
    584      1     60     63       97.90           2958.           97.61    
    585      1     60     64       99.05           2247.           98.76    
    586      1     60     69       105.9           1267.           105.6    
    587      1     60     70       102.0           4042.           101.7    
    588      1     60     76       110.7           527.7           110.6    
    589      1     61     18       118.8           977.9           118.7    
    590      1     61     34       106.5           6418.           106.1    
    591      1     61     35       107.7          0.1006E+05       107.2    
    592      1     61     36       109.6           971.9           109.3    
    593      1     61     37       106.8           2487.           106.6    
    594      1     61     48       111.9           2096.           111.7    
    595      1     61     58       103.6           1467.           103.5    
    596      1     61     59       101.2           2333.           101.0    
    597      1     61     60       101.9           2146.           101.7    
    598      1     61     61       102.1           2250.           101.9    
    599      1     61     62       97.94          0.1388E+05       97.47    
    600      1     61     63       97.00          0.2349E+05       96.38    
    601      1     61     69       100.3           4820.           100.0    
    602      1     61     76       107.1           2165.           106.9    
    603      1     62     18       117.9           1818.           117.8    
    604      1     62     36       104.5          0.1497E+05       104.1    
    605      1     62     48       109.9           3145.           109.7    
    606      1     62     57       106.3           1175.           106.1    
    607      1     62     58       104.3           1653.           104.1    
    608      1     62     62       97.15           1132.           96.98    
    609      1     62     63       96.78          0.2472E+05       96.19    
    610      1     62     68       101.3           3246.           101.0    
    611      1     62     69       101.3           1267.           101.1    
    612      1     62     75       108.7           880.8           108.6    
    613      1     62     76       106.0           983.8           105.8    
    614      1     63     14       120.5           618.5           120.4    
    615      1     63     15       119.3           2324.           119.2    
    616      1     63     16       121.7           685.4           121.5    
    617      1     63     18       118.2           1066.           118.0    
    618      1     63     19       119.2           835.7           119.0    
    619      1     63     36       104.9          0.1058E+05       104.6    
    620      1     63     37       105.7           4858.           105.2    
    621      1     63     48       110.9           1973.           110.7    
    622      1     63     49       111.2           1606.           111.0    
    623      1     63     63       97.71          0.1407E+05       96.90    
    624      1     63     64       97.87          0.1084E+05       97.06    
    625      1     63     68       99.73           3801.           99.48    
    626      1     63     69       101.0           494.7           100.7    
    627      1     63     75       108.3           217.4           108.1    
    628      1     63     76       104.6           1905.           104.4    
    629      1     63     78       108.4           967.6           108.3    
    630      1     63     79       108.5           943.3           108.3    
    631      1     64     16       116.8           1874.           116.7    
    632      1     64     17       119.1           969.3           118.9    
    633      1     64     18       119.2           133.8           119.1    
    634      1     64     19       115.7           1902.           115.5    
    635      1     64     20       116.4           1064.           116.2    
    636      1     64     24       118.5           36.55           118.3    
    637      1     64     35       108.6           395.6           108.5    
    638      1     64     36       106.7           402.7           106.5    
    639      1     64     37       104.3           6401.           103.8    
    640      1     64     38       105.3           8931.           104.8    
    641      1     64     41       107.8           1701.           107.7    
    642      1     64     42       110.9           46.32           110.8    
    643      1     64     49       109.4           3189.           109.2    
    644      1     64     50       111.6           1404.           111.3    
    645      1     64     64       97.57          0.2512E+05       96.76    
    646      1     64     68       97.75           3643.           97.50    
    647      1     64     76       103.5           3212.           103.3    
    648      1     64     77       102.9           1571.           102.8    
    649      1     64     78       105.3           589.7           105.2    
    650      1     65     17       113.9           1638.           113.8    
    651      1     65     18       113.2           1955.           113.0    
    652      1     65     19       113.0           2758.           112.8    
    653      1     65     20       114.3           1632.           114.2    
    654      1     65     24       114.4           1629.           114.3    
    655      1     65     38       104.4           3162.           103.9    
    656      1     65     39       104.4           7365.           104.1    
    657      1     65     40       105.7           1731.           105.5    
    658      1     65     41       109.8           185.3           109.6    
    659      1     65     50       107.9           2479.           107.7    
    660      1     65     51       108.5           2026.           108.3    
    661      1     65     64       98.21          0.1270E+05       97.40    
    662      1     65     65       98.49          0.1624E+05       97.68    
    663      1     65     67       99.58           1448.           99.33    
    664      1     65     68       96.83           4856.           96.58    
    665      1     65     75       102.7           2453.           102.4    
    666      1     65     76       102.6           2453.           102.4    
    667      1     66     19       114.0           417.7           113.8    
    668      1     66     20       111.7           3222.           111.5    
    669      1     66     24       111.0           1568.           110.9    
    670      1     66     39       103.5           7865.           103.1    
    671      1     66     40       105.6           2028.           105.1    
    672      1     66     51       105.8           2971.           105.6    
    673      1     66     65       96.58          0.2367E+05       95.77    
    674      1     66     67       96.97           4404.           96.72    
    675      1     66     74       103.3           227.0           103.1    
    676      1     66     75       100.0           4197.           99.79    
    677      1     67     20       112.0           1353.           111.8    
    678      1     67     21       109.3           5074.           109.1    
    679      1     67     22       109.5           4761.           109.2    
    680      1     67     23       108.8           4454.           108.5    
    681      1     67     24       108.5           5988.           108.3    
    682      1     67     25       109.0           4468.           108.8    
    683      1     67     40       103.9          0.1045E+05       103.4    
    684      1     67     51       106.0           3174.           105.8    
    685      1     67     65       96.16          0.2367E+05       95.35    
    686      1     67     66       96.49           3246.           96.24    
    687      1     67     67       98.64           1683.           98.39    
    688      1     67     74       100.5           3909.           100.2    
    689      1     67     80       106.9           1112.           106.7    
    690      1     68     20       113.8           1165.           113.6    
    691      1     68     21       110.9           1868.           110.7    
    692      1     68     25       107.9           2662.           107.6    
    693      1     68     26       107.5           6436.           107.2    
    694      1     68     40       102.9           9561.           102.4    
    695      1     68     51       107.3           197.8           107.1    
    696      1     68     52       106.3           3584.           106.1    
    697      1     68     61       104.5           655.9           104.4    
    698      1     68     62       104.6           1887.           104.4    
    699      1     68     63       101.8           2124.           101.7    
    700      1     68     64       98.18           1975.           98.02    
    701      1     68     65       94.76          0.2352E+05       94.19    
    702      1     68     66       94.41          0.1311E+05       93.87    
    703      1     68     73       98.22           2098.           97.98    
    704      1     68     74       98.60           4258.           98.36    
    705      1     68     79       103.9           1414.           103.8    
    706      1     68     80       103.5           2094.           103.3    
    707      1     69     18       114.2           1650.           114.1    
    708      1     69     19       112.8           2728.           112.6    
    709      1     69     20       111.4           2482.           111.2    
    710      1     69     27       107.0           6059.           106.7    
    711      1     69     28       107.1           6328.           106.8    
    712      1     69     29       107.9           6167.           107.6    
    713      1     69     30       108.1           1784.           107.8    
    714      1     69     40       103.5          0.1105E+05       103.0    
    715      1     69     52       105.0           3261.           104.8    
    716      1     69     66       94.05          0.2562E+05       93.22    
    717      1     69     72       98.49           2608.           98.25    
    718      1     69     73       97.13           2707.           96.89    
    719      1     69     74       100.5           1844.           100.2    
    720      1     69     77       101.2           921.6           101.0    
    721      1     69     78       99.70           1768.           99.50    
    722      1     69     79       102.0           3245.           101.8    
    723      1     70     17       118.7           828.0           118.6    
    724      1     70     18       114.6           1625.           114.5    
    725      1     70     29       106.5           550.3           106.4    
    726      1     70     30       105.5           9110.           105.2    
    727      1     70     31       106.4           663.8           106.1    
    728      1     70     40       104.0           9117.           103.5    
    729      1     70     41       104.0           1929.           103.5    
    730      1     70     49       106.9           237.9           106.8    
    731      1     70     50       106.1           1360.           105.9    
    732      1     70     51       103.8           3742.           103.6    
    733      1     70     52       104.6           593.4           104.4    
    734      1     70     66       95.59           4426.           94.76    
    735      1     70     67       95.63          0.2432E+05       94.80    
    736      1     70     73       96.34           3610.           96.10    
    737      1     70     76       101.3           1197.           101.1    
    738      1     70     77       98.73           2223.           98.53    
    739      1     70     78       101.2           800.7           101.0    
    740      1     70     79       101.6           437.9           101.4    
    741      1     71     17       118.1           453.8           117.9    
    742      1     71     27       112.3           1089.           112.1    
    743      1     71     28       109.2           2012.           109.0    
[...]
 132   -999.0      -999.0      -999.0      -999.0      -999.0      -999.0      -999.0      -999.0      -999.0      -999.0    
       -999.0      -999.0      -999.0      -999.0      -999.0      -999.0      -999.0      -999.0      -999.0      -999.0    
       -999.0      -999.0      -999.0      -999.0      -999.0      -999.0      -999.0      -999.0      -999.0      -999.0    
       -999.0      -999.0      -999.0      -999.0      -999.0      -999.0      -999.0      -999.0      -999.0      -999.0    
       -999.0      -999.0      -999.0      -999.0      -999.0      -999.0      -999.0      -999.0      -999.0      -999.0    
       -999.0      -999.0      -999.0      -999.0      -999.0      -999.0      -999.0      -999.0      -999.0      -999.0    
       -999.0      -999.0      -999.0      -999.0      -999.0      -999.0      -999.0      -999.0      -999.0      -999.0    
       -999.0      -999.0      -999.0      -999.0      -999.0      -999.0      -999.0      -999.0       106.1       105.8    
        104.1       103.5       102.3       100.7       99.88       99.33       98.66       98.23       97.41       96.13    
        93.71       91.93       91.39       90.51       89.33       89.70       90.36       89.75       87.23       85.67    
        84.95       84.97       85.98       87.27       87.62       87.97       88.12       87.81       89.52       88.55    
        88.56       88.54       88.40       87.73       88.20       89.80       90.82       94.72       96.43       98.45    
        101.0       102.9       105.1       107.3       109.0       111.1       112.6       111.4       112.4       114.7    
       -999.0      -999.0      -999.0      -999.0      -999.0      -999.0    
 133   -999.0      -999.0      -999.0      -999.0      -999.0      -999.0      -999.0      -999.0      -999.0      -999.0    
       -999.0      -999.0      -999.0      -999.0      -999.0      -999.0      -999.0      -999.0      -999.0      -999.0    
       -999.0      -999.0      -999.0      -999.0      -999.0      -999.0      -999.0      -999.0      -999.0      -999.0    
       -999.0      -999.0      -999.0      -999.0      -999.0      -999.0      -999.0      -999.0      -999.0      -999.0    
       -999.0      -999.0      -999.0      -999.0      -999.0      -999.0      -999.0      -999.0      -999.0      -999.0    
       -999.0      -999.0      -999.0      -999.0      -999.0      -999.0      -999.0      -999.0      -999.0      -999.0    
       -999.0      -999.0      -999.0      -999.0      -999.0      -999.0      -999.0      -999.0      -999.0      -999.0    
       -999.0      -999.0      -999.0      -999.0      -999.0      -999.0      -999.0      -999.0      -999.0       106.0    
       -999.0      -999.0      -999.0      -999.0      -999.0       99.60       99.38       99.26      -999.0      -999.0    
       -999.0       94.16       93.51       91.28       90.49       90.59       90.67       90.62       88.67       86.18    
        85.02       84.06       85.00       86.01       86.44       87.12       87.45       87.36       87.24       87.26    
        87.38       87.48       87.70       88.67       89.24       89.66       92.49       95.63       98.58       100.2    
        102.2       104.0       105.9       107.8       109.7       112.9       116.5       108.5      -999.0      -999.0    
       -999.0      -999.0      -999.0      -999.0      -999.0      -999.0    
 134   -999.0      -999.0      -999.0      -999.0      -999.0      -999.0      -999.0      -999.0      -999.0      -999.0    
       -999.0      -999.0      -999.0      -999.0      -999.0      -999.0      -999.0      -999.0      -999.0      -999.0    
       -999.0      -999.0      -999.0      -999.0      -999.0      -999.0      -999.0      -999.0      -999.0      -999.0    
       -999.0      -999.0      -999.0      -999.0      -999.0      -999.0      -999.0      -999.0      -999.0      -999.0    
       -999.0      -999.0      -999.0      -999.0      -999.0      -999.0      -999.0      -999.0      -999.0      -999.0    
       -999.0      -999.0      -999.0      -999.0      -999.0      -999.0      -999.0      -999.0      -999.0      -999.0    
       -999.0      -999.0      -999.0      -999.0      -999.0      -999.0      -999.0      -999.0      -999.0      -999.0    
       -999.0      -999.0      -999.0      -999.0      -999.0      -999.0      -999.0      -999.0      -999.0      -999.0    
       -999.0      -999.0      -999.0      -999.0      -999.0      -999.0       99.46       99.42      -999.0      -999.0    
       -999.0      -999.0       93.19       92.60       92.21       92.11      -999.0      -999.0       87.29       86.48    
        85.21       84.54       83.92       84.56       85.19       86.07       86.73       86.06       86.26       86.34    
        86.48       86.28       88.55       90.79       91.51       92.71       94.16       96.16       98.26       100.8    
        102.8       104.6       106.5       108.1       110.1       113.4      -999.0      -999.0      -999.0      -999.0    
       -999.0      -999.0      -999.0      -999.0      -999.0      -999.0    
 135   -999.0      -999.0      -999.0      -999.0      -999.0      -999.0      -999.0      -999.0      -999.0      -999.0    
       -999.0      -999.0      -999.0      -999.0      -999.0      -999.0      -999.0      -999.0      -999.0      -999.0    
       -999.0      -999.0      -999.0      -999.0      -999.0      -999.0      -999.0      -999.0      -999.0      -999.0    
       -999.0      -999.0      -999.0      -999.0      -999.0      -999.0      -999.0      -999.0      -999.0      -999.0    
       -999.0      -999.0      -999.0      -999.0      -999.0      -999.0      -999.0      -999.0      -999.0      -999.0    
       -999.0      -999.0      -999.0      -999.0      -999.0      -999.0      -999.0      -999.0      -999.0      -999.0    
       -999.0      -999.0      -999.0      -999.0      -999.0      -999.0      -999.0      -999.0      -999.0      -999.0    
       -999.0      -999.0      -999.0      -999.0      -999.0      -999.0      -999.0      -999.0      -999.0      -999.0    
       -999.0      -999.0      -999.0      -999.0      -999.0      -999.0      -999.0      -999.0      -999.0      -999.0    
       -999.0      -999.0      -999.0      -999.0      -999.0      -999.0      -999.0      -999.0      -999.0       85.74    
        85.42       85.03       83.65       83.54       84.29       84.96       85.20       85.45       85.43       85.52    
        85.48       87.13       92.06       92.51       94.09       94.15       95.31       96.29       97.90       99.56    
       -999.0      -999.0       107.4       108.2       109.3      -999.0      -999.0      -999.0      -999.0      -999.0    
       -999.0      -999.0      -999.0      -999.0      -999.0      -999.0    
 136   -999.0      -999.0      -999.0      -999.0      -999.0      -999.0      -999.0      -999.0      -999.0      -999.0    
       -999.0      -999.0      -999.0      -999.0      -999.0      -999.0      -999.0      -999.0      -999.0      -999.0    
       -999.0      -999.0      -999.0      -999.0      -999.0      -999.0      -999.0      -999.0      -999.0      -999.0    
       -999.0      -999.0      -999.0      -999.0      -999.0      -999.0      -999.0      -999.0      -999.0      -999.0    
       -999.0      -999.0      -999.0      -999.0      -999.0      -999.0      -999.0      -999.0      -999.0      -999.0    
       -999.0      -999.0      -999.0      -999.0      -999.0      -999.0      -999.0      -999.0      -999.0      -999.0    
       -999.0      -999.0      -999.0      -999.0      -999.0      -999.0      -999.0      -999.0      -999.0      -999.0    
       -999.0      -999.0      -999.0      -999.0      -999.0      -999.0      -999.0      -999.0      -999.0      -999.0    
       -999.0      -999.0      -999.0      -999.0      -999.0      -999.0      -999.0      -999.0      -999.0      -999.0    
       -999.0      -999.0      -999.0      -999.0      -999.0      -999.0      -999.0      -999.0      -999.0      -999.0    
        85.48       85.21       84.37       83.40       83.37       82.90       83.91       84.56       84.34       84.30    
        85.62       88.17       90.22       92.20       94.03       94.50       95.33       96.38       98.01       99.14    
       -999.0      -999.0      -999.0      -999.0      -999.0      -999.0      -999.0      -999.0      -999.0      -999.0    
       -999.0      -999.0      -999.0      -999.0      -999.0      -999.0    
 137   -999.0      -999.0      -999.0      -999.0      -999.0      -999.0      -999.0      -999.0      -999.0      -999.0    
       -999.0      -999.0      -999.0      -999.0      -999.0      -999.0      -999.0      -999.0      -999.0      -999.0    
       -999.0      -999.0      -999.0      -999.0      -999.0      -999.0      -999.0      -999.0      -999.0      -999.0    
       -999.0      -999.0      -999.0      -999.0      -999.0      -999.0      -999.0      -999.0      -999.0      -999.0    
       -999.0      -999.0      -999.0      -999.0      -999.0      -999.0      -999.0      -999.0      -999.0      -999.0    
       -999.0      -999.0      -999.0      -999.0      -999.0      -999.0      -999.0      -999.0      -999.0      -999.0    
       -999.0      -999.0      -999.0      -999.0      -999.0      -999.0      -999.0      -999.0      -999.0      -999.0    
       -999.0      -999.0      -999.0      -999.0      -999.0      -999.0      -999.0      -999.0      -999.0      -999.0    
       -999.0      -999.0      -999.0      -999.0      -999.0      -999.0      -999.0      -999.0      -999.0      -999.0    
       -999.0      -999.0      -999.0      -999.0      -999.0      -999.0      -999.0      -999.0      -999.0      -999.0    
       -999.0       85.12       84.81       83.89       83.32       82.97       82.67       84.37       85.13       86.09    
        87.19       88.88       90.81       92.12       93.57       94.68       95.44       96.21      -999.0      -999.0    
       -999.0      -999.0      -999.0      -999.0      -999.0      -999.0      -999.0      -999.0      -999.0      -999.0    
       -999.0      -999.0      -999.0      -999.0      -999.0      -999.0    
 138   -999.0      -999.0      -999.0      -999.0      -999.0      -999.0      -999.0      -999.0      -999.0      -999.0    
       -999.0      -999.0      -999.0      -999.0      -999.0      -999.0      -999.0      -999.0      -999.0      -999.0    
       -999.0      -999.0      -999.0      -999.0      -999.0      -999.0      -999.0      -999.0      -999.0      -999.0    
       -999.0      -999.0      -999.0      -999.0      -999.0      -999.0      -999.0      -999.0      -999.0      -999.0    
       -999.0      -999.0      -999.0      -999.0      -999.0      -999.0      -999.0      -999.0      -999.0      -999.0    
       -999.0      -999.0      -999.0      -999.0      -999.0      -999.0      -999.0      -999.0      -999.0      -999.0    
       -999.0      -999.0      -999.0      -999.0      -999.0      -999.0      -999.0      -999.0      -999.0      -999.0    
       -999.0      -999.0      -999.0      -999.0      -999.0      -999.0      -999.0      -999.0      -999.0      -999.0    
       -999.0      -999.0      -999.0      -999.0      -999.0      -999.0      -999.0      -999.0      -999.0      -999.0    
       -999.0      -999.0      -999.0      -999.0      -999.0      -999.0      -999.0      -999.0      -999.0      -999.0    
       -999.0      -999.0       84.64       84.31       83.74       83.05       83.72       84.80       86.05       88.51    
        88.92       89.78       90.75       92.87       94.32       94.95      -999.0      -999.0      -999.0      -999.0    
       -999.0      -999.0      -999.0      -999.0      -999.0      -999.0      -999.0      -999.0      -999.0      -999.0    
       -999.0      -999.0      -999.0      -999.0      -999.0      -999.0    
 139   -999.0      -999.0      -999.0      -999.0      -999.0      -999.0      -999.0      -999.0      -999.0      -999.0    
       -999.0      -999.0      -999.0      -999.0      -999.0      -999.0      -999.0      -999.0      -999.0      -999.0    
       -999.0      -999.0      -999.0      -999.0      -999.0      -999.0      -999.0      -999.0      -999.0      -999.0    
       -999.0      -999.0      -999.0      -999.0      -999.0      -999.0      -999.0      -999.0      -999.0      -999.0    
       -999.0      -999.0      -999.0      -999.0      -999.0      -999.0      -999.0      -999.0      -999.0      -999.0    
       -999.0      -999.0      -999.0      -999.0      -999.0      -999.0      -999.0      -999.0      -999.0      -999.0    
       -999.0      -999.0      -999.0      -999.0      -999.0      -999.0      -999.0      -999.0      -999.0      -999.0    
       -999.0      -999.0      -999.0      -999.0      -999.0      -999.0      -999.0      -999.0      -999.0      -999.0    
       -999.0      -999.0      -999.0      -999.0      -999.0      -999.0      -999.0      -999.0      -999.0      -999.0    
       -999.0      -999.0      -999.0      -999.0      -999.0      -999.0      -999.0      -999.0      -999.0      -999.0    
       -999.0      -999.0       84.56       84.37       83.97       83.41       84.05       85.08       86.69       88.52    
        89.19       89.88       90.68       92.29       95.35      -999.0      -999.0      -999.0      -999.0      -999.0    
       -999.0      -999.0      -999.0      -999.0      -999.0      -999.0      -999.0      -999.0      -999.0      -999.0    
       -999.0      -999.0      -999.0      -999.0      -999.0      -999.0    
 140   -999.0      -999.0      -999.0      -999.0      -999.0      -999.0      -999.0      -999.0      -999.0      -999.0    
       -999.0      -999.0      -999.0      -999.0      -999.0      -999.0      -999.0      -999.0      -999.0      -999.0    
       -999.0      -999.0      -999.0      -999.0      -999.0      -999.0      -999.0      -999.0      -999.0      -999.0    
       -999.0      -999.0      -999.0      -999.0      -999.0      -999.0      -999.0      -999.0      -999.0      -999.0    
       -999.0      -999.0      -999.0      -999.0      -999.0      -999.0      -999.0      -999.0      -999.0      -999.0    
       -999.0      -999.0      -999.0      -999.0      -999.0      -999.0      -999.0      -999.0      -999.0      -999.0    
       -999.0      -999.0      -999.0      -999.0      -999.0      -999.0      -999.0      -999.0      -999.0      -999.0    
       -999.0      -999.0      -999.0      -999.0      -999.0      -999.0      -999.0      -999.0      -999.0      -999.0    
       -999.0      -999.0      -999.0      -999.0      -999.0      -999.0      -999.0      -999.0      -999.0      -999.0    
       -999.0      -999.0      -999.0      -999.0      -999.0      -999.0      -999.0      -999.0      -999.0      -999.0    
       -999.0      -999.0      -999.0       84.39       84.23       83.77       82.99       85.44       87.02       88.30    
        89.04       89.83       91.01       92.26       93.80      -999.0      -999.0      -999.0      -999.0      -999.0    
       -999.0      -999.0      -999.0      -999.0      -999.0      -999.0      -999.0      -999.0      -999.0      -999.0    
       -999.0      -999.0      -999.0      -999.0      -999.0      -999.0    
 141   -999.0      -999.0      -999.0      -999.0      -999.0      -999.0      -999.0      -999.0      -999.0      -999.0    
       -999.0      -999.0      -999.0      -999.0      -999.0      -999.0      -999.0      -999.0      -999.0      -999.0    
       -999.0      -999.0      -999.0      -999.0      -999.0      -999.0      -999.0      -999.0      -999.0      -999.0    
       -999.0      -999.0      -999.0      -999.0      -999.0      -999.0      -999.0      -999.0      -999.0      -999.0    
       -999.0      -999.0      -999.0      -999.0      -999.0      -999.0      -999.0      -999.0      -999.0      -999.0    
       -999.0      -999.0      -999.0      -999.0      -999.0      -999.0      -999.0      -999.0      -999.0      -999.0    
       -999.0      -999.0      -999.0      -999.0      -999.0      -999.0      -999.0      -999.0      -999.0      -999.0    
       -999.0      -999.0      -999.0      -999.0      -999.0      -999.0      -999.0      -999.0      -999.0      -999.0    
       -999.0      -999.0      -999.0      -999.0      -999.0      -999.0      -999.0      -999.0      -999.0      -999.0    
       -999.0      -999.0      -999.0      -999.0      -999.0      -999.0      -999.0      -999.0      -999.0      -999.0    
       -999.0      -999.0      -999.0      -999.0       84.40       84.38       84.62       85.62       86.94       88.46    
        89.04       89.99       92.61       95.31       95.74      -999.0      -999.0      -999.0      -999.0      -999.0    
       -999.0      -999.0      -999.0      -999.0      -999.0      -999.0      -999.0      -999.0      -999.0      -999.0    
       -999.0      -999.0      -999.0      -999.0      -999.0      -999.0    

 HEAD WILL BE SAVED ON UNIT 5030 AT END OF TIME STEP    1, STRESS PERIOD    1
1
  VOLUMETRIC BUDGET FOR ENTIRE MODEL AT END OF TIME STEP    1, STRESS PERIOD   1
  ------------------------------------------------------------------------------

     CUMULATIVE VOLUMES      L**3       RATES FOR THIS TIME STEP      L**3/T
     ------------------                 ------------------------

           IN:                                      IN:
           ---                                      ---
             STORAGE =           0.0000               STORAGE =           0.0000
       CONSTANT HEAD =   134182112.0000         CONSTANT HEAD =       24463.4668
               WELLS =           0.0000                 WELLS =           0.0000
              DRAINS =           0.0000                DRAINS =           0.0000
       RIVER LEAKAGE =   555737984.0000         RIVER LEAKAGE =      101319.5938
                  ET =           0.0000                    ET =           0.0000
            RECHARGE =  3170628352.0000              RECHARGE =      578054.3750

            TOTAL IN =  3860548352.0000              TOTAL IN =      703837.4375

          OUT:                                     OUT:
          ----                                     ----
             STORAGE =           0.0000               STORAGE =           0.0000
       CONSTANT HEAD =    53309948.0000         CONSTANT HEAD =        9719.2246
               WELLS =    42112048.0000                 WELLS =        7677.6748
              DRAINS =    49305436.0000                DRAINS =        8989.1406
       RIVER LEAKAGE =  3715820800.0000         RIVER LEAKAGE =      677451.3750
                  ET =           0.0000                    ET =           0.0000
            RECHARGE =           0.0000              RECHARGE =           0.0000

           TOTAL OUT =  3860548096.0000             TOTAL OUT =      703837.4375

            IN - OUT =         256.0000              IN - OUT =           0.0000

 PERCENT DISCREPANCY =           0.00     PERCENT DISCREPANCY =           0.00






         TIME SUMMARY AT END OF TIME STEP    1 IN STRESS PERIOD    1
                    SECONDS     MINUTES      HOURS       DAYS        YEARS
                    -----------------------------------------------------------
   TIME STEP LENGTH 4.73904E+08 7.89840E+06 1.31640E+05  5485.0      15.017    
 STRESS PERIOD TIME 4.73904E+08 7.89840E+06 1.31640E+05  5485.0      15.017    
         TOTAL TIME 4.73904E+08 7.89840E+06 1.31640E+05  5485.0      15.017    
1

 Run end date and time (yyyy/mm/dd hh:mm:ss): 2019/03/01 13:02:13
 Elapsed run time:  0.760 Seconds

