1
    SWAT Mar 17 2015    VER 2012/Rev 636_smrt                                                            0/ 0/   0      0: 0: 0

    General Input/Output section (file.cio):                                        
    11/6/2024 12:00:00 AM ARCGIS-SWAT interface AV                                  
                                                                                    
         Number of years in run:   36
         Area of watershed:     4627.030 km2
         Random number generator cycles: 0, use default numbers

         Initial random number seed: wet/dry day prob        748932582
         Initial random number seed: radiation              1948832765
         Initial random number seed: precipitation           857034417
         Initial random number seed: 0.5 hr rainfall          67377721
         Initial random number seed: wind speed              366304404
         Initial random number seed: irrigation             1094585182
         Initial random number seed: relative humidity      1767585417
         Initial random number seed: max temperature         608439319
         Initial random number seed: min temperature         592757081

         Precipitation data used in run:
          Multiple gages read for watershed
             Daily rainfall data used

         Temperature data used in run:
          Multiple gages read for watershed

         PET method used: Penman-Monteith

         Rainfall/Runoff/Routing Option:
          Daily rainfall data
          Runoff estimated with curve number method
          Daily stream routing
           Variable Storage routing method
           Channel dimensions remain constant
           Subbasin algae/CBOD loadings not modeled
           In-stream nutrient transformations modeled using QUAL2E equations

         Subbasin Input Summary:
          Sub Latitude  Elev(m) #HRUs Ponds Elevbnds Wetlnd
            1    30.86     3.70     6                   
            2    30.86     7.60     6                   
            3    30.86    10.26     6                   
            4    30.86     7.29     6                   
            5    30.86    11.98     6                   
            6    30.86     5.71    11                   
            7    30.68    10.69     6                   
            8    30.68    21.98     6                   
            9    30.68    16.94    13                   
           10    30.68    10.16     6                   
           11    30.68     8.85     6                   
           12    30.68    13.03     6                   
           13    30.53    11.68     6                   
           14    30.53     4.22    11                   
           15    30.53    10.66     6                   
           16    30.53     4.73    10                   
           17    30.53     1.08     6                   

         HRU Input Summary Table 1:
          Sub   HRU   Area(ha) Slope SlpLgth(m) Ovrlnd_N CondII_CN TimeConc(hr) ESCO EPCO
            1      1    1765.82 0.026      91.46    0.100     86.22        2.156 0.95 1.00
            1      2      49.95 0.027      91.46    0.150     83.00        0.858 0.95 1.00
            1      3    5783.66 0.012     121.95    0.140     84.00        5.468 0.95 1.00
            1      4    1445.92 0.012     121.95    0.140     87.00        2.434 0.95 1.00
            1      5    3614.79 0.012     121.95    0.140     84.00        4.012 0.95 1.00
            1      6    3614.79 0.012     121.95    0.140     87.00        4.012 0.95 1.00
            2      7    2421.42 0.024      91.46    0.100     86.22        3.420 0.95 1.00
            2      8     138.83 0.024      91.46    0.150     83.00        1.047 0.95 1.00
            2      9    4523.21 0.011     121.95    0.140     84.00        5.979 0.95 1.00
            2     10    1130.80 0.011     121.95    0.140     87.00        2.607 0.95 1.00
            2     11    2827.00 0.011     121.95    0.140     84.00        4.361 0.95 1.00
            2     12    2827.00 0.011     121.95    0.140     87.00        4.361 0.95 1.00
            3     13    1457.50 0.021      91.46    0.100     86.22        3.558 0.95 1.00
            3     14      80.28 0.020      91.46    0.150     83.00        1.094 0.95 1.00
            3     15    2642.86 0.011     121.95    0.140     84.00        6.043 0.95 1.00
            3     16     660.71 0.011     121.95    0.140     87.00        2.626 0.95 1.00
            3     17    1651.79 0.011     121.95    0.140     84.00        4.404 0.95 1.00
            3     18    1651.79 0.011     121.95    0.140     87.00        4.404 0.95 1.00
            4     19     326.60 0.024      91.46    0.150     83.00        0.924 0.95 1.00
            4     20    6352.74 0.024      91.46    0.100     86.22        2.050 0.95 1.00
            4     21   14177.65 0.010     121.95    0.140     84.00        4.056 0.95 1.00
            4     22    3544.41 0.010     121.95    0.140     87.00        2.060 0.95 1.00
            4     23    8861.03 0.010     121.95    0.140     84.00        3.098 0.95 1.00
            4     24    8861.03 0.010     121.95    0.140     87.00        3.098 0.95 1.00
            5     25     510.89 0.026      91.46    0.100     86.22        1.617 0.95 1.00
            5     26     129.90 0.024      91.46    0.150     83.00        1.118 0.95 1.00
            5     27     843.78 0.012     121.95    0.140     84.00        2.686 0.95 1.00
            5     28     210.94 0.012     121.95    0.140     87.00        1.607 0.95 1.00
            5     29     527.36 0.012     121.95    0.140     84.00        2.168 0.95 1.00
            5     30     527.36 0.012     121.95    0.140     87.00        2.168 0.95 1.00
            6     31    7676.62 0.022      91.46    0.100     86.22        3.679 0.95 1.00
            6     32    1127.85 0.020     121.95    0.150     77.00        1.592 0.95 1.00
            6     33    2943.01 0.023      91.46    0.150     83.00        2.135 0.95 1.00
            6     34    4790.04 0.012     121.95    0.140     81.00        3.149 0.95 1.00
            6     35   10541.72 0.010     121.95    0.140     84.00        5.200 0.95 1.00
            6     36    1197.51 0.012     121.95    0.140     83.00        1.744 0.95 1.00
            6     37    2635.43 0.010     121.95    0.140     87.00        2.400 0.95 1.00
            6     38    2993.77 0.012     121.95    0.140     81.00        2.475 0.95 1.00
            6     39    6588.57 0.010     121.95    0.140     84.00        3.856 0.95 1.00
            6     40    2993.77 0.012     121.95    0.140     83.00        2.475 0.95 1.00
            6     41    6588.57 0.010     121.95    0.140     87.00        3.856 0.95 1.00
            7     42    1816.64 0.020      91.46    0.100     86.22        2.103 0.95 1.00
            7     43      66.84 0.017     121.95    0.150     83.00        1.159 0.95 1.00
            7     44    3974.58 0.010     121.95    0.140     84.00        4.040 0.95 1.00
            7     45     993.65 0.010     121.95    0.140     87.00        2.055 0.95 1.00
            7     46    2484.11 0.010     121.95    0.140     84.00        3.088 0.95 1.00
            7     47    2484.11 0.010     121.95    0.140     87.00        3.088 0.95 1.00
            8     48    6752.10 0.025      91.46    0.100     86.22        4.813 0.95 1.00
            8     49    5768.89 0.020     121.95    0.150     83.00        4.669 0.95 1.00
            8     50    7869.94 0.015     121.95    0.140     84.00        5.853 0.95 1.00
            8     51    1967.49 0.015     121.95    0.140     87.00        2.496 0.95 1.00
            8     52    4918.71 0.015     121.95    0.140     84.00        4.242 0.95 1.00
            8     53    4918.71 0.015     121.95    0.140     87.00        4.242 0.95 1.00
            9     54    2791.60 0.018     121.95    0.100     81.88        1.648 0.95 1.00
            9     55    1129.43 0.019     121.95    0.100     86.22        1.188 0.95 1.00
            9     56    1667.01 0.024      91.46    0.100     86.22        1.162 0.95 1.00
            9     57    3848.80 0.024      91.46    0.150     77.00        1.900 0.95 1.00
            9     58    2427.52 0.022      91.46    0.150     83.00        1.563 0.95 1.00
            9     59   10792.76 0.018     121.95    0.140     81.00        3.682 0.95 1.00
            9     60   10212.11 0.019     121.95    0.140     84.00        3.540 0.95 1.00
            9     61    2698.19 0.018     121.95    0.140     83.00        1.810 0.95 1.00
            9     62    2553.03 0.019     121.95    0.140     87.00        1.757 0.95 1.00
            9     63    6745.48 0.018     121.95    0.140     81.00        2.784 0.95 1.00
            9     64    6382.57 0.019     121.95    0.140     84.00        2.684 0.95 1.00
            9     65    6745.48 0.018     121.95    0.140     83.00        2.784 0.95 1.00
            9     66    6382.57 0.019     121.95    0.140     87.00        2.684 0.95 1.00
           10     67    1776.35 0.022      91.46    0.100     86.22        2.171 0.95 1.00
           10     68     114.84 0.024      91.46    0.150     83.00        0.957 0.95 1.00
           10     69    3409.87 0.011     121.95    0.140     84.00        3.855 0.95 1.00
           10     70     852.47 0.011     121.95    0.140     87.00        1.976 0.95 1.00
           10     71    2131.17 0.011     121.95    0.140     84.00        2.953 0.95 1.00
           10     72    2131.17 0.011     121.95    0.140     87.00        2.953 0.95 1.00
           11     73    1995.32 0.025      91.46    0.100     86.22        1.905 0.95 1.00
           11     74     328.73 0.027      91.46    0.150     83.00        1.053 0.95 1.00
           11     75    2517.88 0.011     121.95    0.140     84.00        2.738 0.95 1.00
           11     76     629.47 0.011     121.95    0.140     87.00        1.643 0.95 1.00
           11     77    1573.67 0.011     121.95    0.140     84.00        2.213 0.95 1.00
           11     78    1573.67 0.011     121.95    0.140     87.00        2.213 0.95 1.00
           12     79     131.92 0.022      91.46    0.100     86.22        1.210 0.95 1.00
           12     80      79.01 0.012     121.95    0.150     83.00        1.550 0.95 1.00
           12     81     351.82 0.013     121.95    0.140     84.00        2.421 0.95 1.00
           12     82      87.95 0.013     121.95    0.140     87.00        1.509 0.95 1.00
           12     83     219.88 0.013     121.95    0.140     84.00        1.983 0.95 1.00
           12     84     219.88 0.013     121.95    0.140     87.00        1.983 0.95 1.00
           13     85    3499.28 0.022      91.46    0.100     86.22        2.509 0.95 1.00
           13     86     230.44 0.024      91.46    0.150     83.00        0.990 0.95 1.00
           13     87    6732.26 0.012     121.95    0.140     84.00        4.430 0.95 1.00
           13     88    1683.07 0.012     121.95    0.140     87.00        2.125 0.95 1.00
           13     89    4207.66 0.012     121.95    0.140     84.00        3.324 0.95 1.00
           13     90    4207.66 0.012     121.95    0.140     87.00        3.324 0.95 1.00
           14     91    1862.90 0.024      91.46    0.100     86.22        2.026 0.95 1.00
           14     92    2360.57 0.024      91.46    0.100     86.22        2.345 0.95 1.00
           14     93     103.17 0.030      91.46    0.150     83.00        0.876 0.95 1.00
           14     94    6971.52 0.012     121.95    0.140     84.00        5.541 0.95 1.00
           14     95    3975.35 0.012     121.95    0.140     84.00        3.836 0.95 1.00
           14     96    1742.88 0.012     121.95    0.140     87.00        2.456 0.95 1.00
           14     97     993.84 0.012     121.95    0.140     87.00        1.949 0.95 1.00
           14     98    4357.20 0.012     121.95    0.140     84.00        4.061 0.95 1.00
           14     99    2484.59 0.012     121.95    0.140     84.00        2.931 0.95 1.00
           14    100    4357.20 0.012     121.95    0.140     87.00        4.061 0.95 1.00
           14    101    2484.59 0.012     121.95    0.140     87.00        2.931 0.95 1.00
           15    102    2906.52 0.025      91.46    0.100     86.22        2.125 0.95 1.00
           15    103    1532.70 0.017     121.95    0.150     83.00        1.931 0.95 1.00
           15    104    3971.84 0.011     121.95    0.140     84.00        3.139 0.95 1.00
           15    105     992.96 0.011     121.95    0.140     87.00        1.763 0.95 1.00
           15    106    2482.40 0.011     121.95    0.140     84.00        2.479 0.95 1.00
           15    107    2482.40 0.011     121.95    0.140     87.00        2.479 0.95 1.00
           16    108   12661.78 0.026      91.46    0.100     86.22        3.998 0.95 1.00
           16    109     361.19 0.024      91.46    0.150     83.00        0.969 0.95 1.00
           16    110    7415.52 0.011     121.95    0.140     84.00        3.291 0.95 1.00
           16    111   20910.10 0.012     121.95    0.140     84.00        6.378 0.95 1.00
           16    112    1853.88 0.011     121.95    0.140     87.00        1.808 0.95 1.00
           16    113    5227.52 0.012     121.95    0.140     87.00        2.704 0.95 1.00
           16    114    4634.69 0.011     121.95    0.140     84.00        2.579 0.95 1.00
           16    115   13068.81 0.012     121.95    0.140     84.00        4.615 0.95 1.00
           16    116    4634.69 0.011     121.95    0.140     87.00        2.579 0.95 1.00
           16    117   13068.81 0.012     121.95    0.140     87.00        4.615 0.95 1.00
           17    118    4293.68 0.014     121.95    0.100     86.22        2.040 0.95 1.00
           17    119       9.15 0.022      91.46    0.150     77.00        0.846 0.95 1.00
           17    120   18473.63 0.011     121.95    0.140     84.00        5.278 0.95 1.00
           17    121    4618.41 0.011     121.95    0.140     87.00        2.399 0.95 1.00
           17    122   11546.02 0.011     121.95    0.140     84.00        3.896 0.95 1.00
           17    123   11546.02 0.011     121.95    0.140     87.00        3.896 0.95 1.00

         HRU CN Input Summary Table:
          Sub   HRU   Area(ha)  LULC      Soil    CN1    CN2    CN3  Wilting Point (mm H2O)  Field Capacity (mm H2O)  Saturation (mm H2O)
            1      1    1765.82  BERM  Jc26-2-3   71.7   86.2   94.6                   153.4                     10.0                329.6
            1      2      49.95  ORAN  Jc26-2-3   67.0   83.0   93.1                   153.4                     10.0                329.6
            1      3    5783.66  WWHT  Jc26-2-3   68.4   84.0   93.5                   153.4                     10.0                329.6
            1      4    1445.92  COTP  Jc26-2-3   73.0   87.0   95.0                   153.4                     10.0                329.6
            1      5    3614.79  RICE  Jc26-2-3   68.4   84.0   93.5                   153.4                     10.0                329.6
            1      6    3614.79  CORN  Jc26-2-3   73.0   87.0   95.0                   153.4                     10.0                329.6
            2      7    2421.42  BERM  Jc26-2-3   71.7   86.2   94.6                   153.4                     10.0                329.6
            2      8     138.83  ORAN  Jc26-2-3   67.0   83.0   93.1                   153.4                     10.0                329.6
            2      9    4523.21  WWHT  Jc26-2-3   68.4   84.0   93.5                   153.4                     10.0                329.6
            2     10    1130.80  COTP  Jc26-2-3   73.0   87.0   95.0                   153.4                     10.0                329.6
            2     11    2827.00  RICE  Jc26-2-3   68.4   84.0   93.5                   153.4                     10.0                329.6
            2     12    2827.00  CORN  Jc26-2-3   73.0   87.0   95.0                   153.4                     10.0                329.6
            3     13    1457.50  BERM  Jc26-2-3   71.7   86.2   94.6                   153.4                     10.0                329.6
            3     14      80.28  ORAN  Jc26-2-3   67.0   83.0   93.1                   153.4                     10.0                329.6
            3     15    2642.86  WWHT  Jc26-2-3   68.4   84.0   93.5                   153.4                     10.0                329.6
            3     16     660.71  COTP  Jc26-2-3   73.0   87.0   95.0                   153.4                     10.0                329.6
            3     17    1651.79  RICE  Jc26-2-3   68.4   84.0   93.5                   153.4                     10.0                329.6
            3     18    1651.79  CORN  Jc26-2-3   73.0   87.0   95.0                   153.4                     10.0                329.6
            4     19     326.60  ORAN  Jc26-2-3   67.0   83.0   93.1                   153.4                     10.0                329.6
            4     20    6352.74  BERM  Jc26-2-3   71.7   86.2   94.6                   153.4                     10.0                329.6
            4     21   14177.65  WWHT  Jc26-2-3   68.4   84.0   93.5                   153.4                     10.0                329.6
            4     22    3544.41  COTP  Jc26-2-3   73.0   87.0   95.0                   153.4                     10.0                329.6
            4     23    8861.03  RICE  Jc26-2-3   68.4   84.0   93.5                   153.4                     10.0                329.6
            4     24    8861.03  CORN  Jc26-2-3   73.0   87.0   95.0                   153.4                     10.0                329.6
            5     25     510.89  BERM  Jc26-2-3   71.7   86.2   94.6                   153.4                     10.0                329.6
            5     26     129.90  ORAN  Jc26-2-3   67.0   83.0   93.1                   153.4                     10.0                329.6
            5     27     843.78  WWHT  Jc26-2-3   68.4   84.0   93.5                   153.4                     10.0                329.6
            5     28     210.94  COTP  Jc26-2-3   73.0   87.0   95.0                   153.4                     10.0                329.6
            5     29     527.36  RICE  Jc26-2-3   68.4   84.0   93.5                   153.4                     10.0                329.6
            5     30     527.36  CORN  Jc26-2-3   73.0   87.0   95.0                   153.4                     10.0                329.6
            6     31    7676.62  BERM  Jc26-2-3   71.7   86.2   94.6                   153.4                     10.0                329.6
            6     32    1127.85  ORAN  Re1-1-2a   59.3   77.0   89.9                    75.6                    150.0                448.9
            6     33    2943.01  ORAN  Jc26-2-3   67.0   83.0   93.1                   153.4                     10.0                329.6
            6     34    4790.04  WWHT  Re1-1-2a   64.3   81.0   92.0                    75.6                    150.0                448.9
            6     35   10541.72  WWHT  Jc26-2-3   68.4   84.0   93.5                   153.4                     10.0                329.6
            6     36    1197.51  COTP  Re1-1-2a   67.0   83.0   93.1                    75.6                    150.0                448.9
            6     37    2635.43  COTP  Jc26-2-3   73.0   87.0   95.0                   153.4                     10.0                329.6
            6     38    2993.77  RICE  Re1-1-2a   64.3   81.0   92.0                    75.6                    150.0                448.9
            6     39    6588.57  RICE  Jc26-2-3   68.4   84.0   93.5                   153.4                     10.0                329.6
            6     40    2993.77  CORN  Re1-1-2a   67.0   83.0   93.1                    75.6                    150.0                448.9
            6     41    6588.57  CORN  Jc26-2-3   73.0   87.0   95.0                   153.4                     10.0                329.6
            7     42    1816.64  BERM  Jc26-2-3   71.7   86.2   94.6                   153.4                     10.0                329.6
            7     43      66.84  ORAN  Jc26-2-3   67.0   83.0   93.1                   153.4                     10.0                329.6
            7     44    3974.58  WWHT  Jc26-2-3   68.4   84.0   93.5                   153.4                     10.0                329.6
            7     45     993.65  COTP  Jc26-2-3   73.0   87.0   95.0                   153.4                     10.0                329.6
            7     46    2484.11  RICE  Jc26-2-3   68.4   84.0   93.5                   153.4                     10.0                329.6
            7     47    2484.11  CORN  Jc26-2-3   73.0   87.0   95.0                   153.4                     10.0                329.6
            8     48    6752.10  BERM  Jc26-2-3   71.7   86.2   94.6                   153.4                     10.0                329.6
            8     49    5768.89  ORAN  Jc26-2-3   67.0   83.0   93.1                   153.4                     10.0                329.6
            8     50    7869.94  WWHT  Jc26-2-3   68.4   84.0   93.5                   153.4                     10.0                329.6
            8     51    1967.49  COTP  Jc26-2-3   73.0   87.0   95.0                   153.4                     10.0                329.6
            8     52    4918.71  RICE  Jc26-2-3   68.4   84.0   93.5                   153.4                     10.0                329.6
            8     53    4918.71  CORN  Jc26-2-3   73.0   87.0   95.0                   153.4                     10.0                329.6
            9     54    2791.60  BERM  Re1-1-2a   65.5   81.9   92.5                    75.6                    150.0                448.9
            9     55    1129.43  BERM  D-SS-36    71.7   86.2   94.6                   247.0                    120.0                198.3
            9     56    1667.01  BERM  Jc26-2-3   71.7   86.2   94.6                   153.4                     10.0                329.6
            9     57    3848.80  ORAN  Re1-1-2a   59.3   77.0   89.9                    75.6                    150.0                448.9
            9     58    2427.52  ORAN  D-SS-36    67.0   83.0   93.1                   247.0                    120.0                198.3
            9     59   10792.76  WWHT  Re1-1-2a   64.3   81.0   92.0                    75.6                    150.0                448.9
            9     60   10212.11  WWHT  D-SS-36    68.4   84.0   93.5                   247.0                    120.0                198.3
            9     61    2698.19  COTP  Re1-1-2a   67.0   83.0   93.1                    75.6                    150.0                448.9
            9     62    2553.03  COTP  D-SS-36    73.0   87.0   95.0                   247.0                    120.0                198.3
            9     63    6745.48  RICE  Re1-1-2a   64.3   81.0   92.0                    75.6                    150.0                448.9
            9     64    6382.57  RICE  D-SS-36    68.4   84.0   93.5                   247.0                    120.0                198.3
            9     65    6745.48  CORN  Re1-1-2a   67.0   83.0   93.1                    75.6                    150.0                448.9
            9     66    6382.57  CORN  D-SS-36    73.0   87.0   95.0                   247.0                    120.0                198.3
           10     67    1776.35  BERM  Jc26-2-3   71.7   86.2   94.6                   153.4                     10.0                329.6
           10     68     114.84  ORAN  Jc26-2-3   67.0   83.0   93.1                   153.4                     10.0                329.6
           10     69    3409.87  WWHT  Jc26-2-3   68.4   84.0   93.5                   153.4                     10.0                329.6
           10     70     852.47  COTP  Jc26-2-3   73.0   87.0   95.0                   153.4                     10.0                329.6
           10     71    2131.17  RICE  Jc26-2-3   68.4   84.0   93.5                   153.4                     10.0                329.6
           10     72    2131.17  CORN  Jc26-2-3   73.0   87.0   95.0                   153.4                     10.0                329.6
           11     73    1995.32  BERM  Jc26-2-3   71.7   86.2   94.6                   153.4                     10.0                329.6
           11     74     328.73  ORAN  Jc26-2-3   67.0   83.0   93.1                   153.4                     10.0                329.6
           11     75    2517.88  WWHT  Jc26-2-3   68.4   84.0   93.5                   153.4                     10.0                329.6
           11     76     629.47  COTP  Jc26-2-3   73.0   87.0   95.0                   153.4                     10.0                329.6
           11     77    1573.67  RICE  Jc26-2-3   68.4   84.0   93.5                   153.4                     10.0                329.6
           11     78    1573.67  CORN  Jc26-2-3   73.0   87.0   95.0                   153.4                     10.0                329.6
           12     79     131.92  BERM  Jc26-2-3   71.7   86.2   94.6                   153.4                     10.0                329.6
           12     80      79.01  ORAN  Jc26-2-3   67.0   83.0   93.1                   153.4                     10.0                329.6
           12     81     351.82  WWHT  Jc26-2-3   68.4   84.0   93.5                   153.4                     10.0                329.6
           12     82      87.95  COTP  Jc26-2-3   73.0   87.0   95.0                   153.4                     10.0                329.6
           12     83     219.88  RICE  Jc26-2-3   68.4   84.0   93.5                   153.4                     10.0                329.6
           12     84     219.88  CORN  Jc26-2-3   73.0   87.0   95.0                   153.4                     10.0                329.6
           13     85    3499.28  BERM  Jc26-2-3   71.7   86.2   94.6                   153.4                     10.0                329.6
           13     86     230.44  ORAN  Jc26-2-3   67.0   83.0   93.1                   153.4                     10.0                329.6
           13     87    6732.26  WWHT  Jc26-2-3   68.4   84.0   93.5                   153.4                     10.0                329.6
           13     88    1683.07  COTP  Jc26-2-3   73.0   87.0   95.0                   153.4                     10.0                329.6
           13     89    4207.66  RICE  Jc26-2-3   68.4   84.0   93.5                   153.4                     10.0                329.6
           13     90    4207.66  CORN  Jc26-2-3   73.0   87.0   95.0                   153.4                     10.0                329.6
           14     91    1862.90  BERM  Zg9-3a-3   71.7   86.2   94.6                   166.2                    180.0                230.0
           14     92    2360.57  BERM  Jc26-2-3   71.7   86.2   94.6                   153.4                     10.0                329.6
           14     93     103.17  ORAN  Jc26-2-3   67.0   83.0   93.1                   153.4                     10.0                329.6
           14     94    6971.52  WWHT  Zg9-3a-3   68.4   84.0   93.5                   166.2                    180.0                230.0
           14     95    3975.35  WWHT  Jc26-2-3   68.4   84.0   93.5                   153.4                     10.0                329.6
           14     96    1742.88  COTP  Zg9-3a-3   73.0   87.0   95.0                   166.2                    180.0                230.0
           14     97     993.84  COTP  Jc26-2-3   73.0   87.0   95.0                   153.4                     10.0                329.6
           14     98    4357.20  RICE  Zg9-3a-3   68.4   84.0   93.5                   166.2                    180.0                230.0
           14     99    2484.59  RICE  Jc26-2-3   68.4   84.0   93.5                   153.4                     10.0                329.6
           14    100    4357.20  CORN  Zg9-3a-3   73.0   87.0   95.0                   166.2                    180.0                230.0
           14    101    2484.59  CORN  Jc26-2-3   73.0   87.0   95.0                   153.4                     10.0                329.6
           15    102    2906.52  BERM  Jc26-2-3   71.7   86.2   94.6                   153.4                     10.0                329.6
           15    103    1532.70  ORAN  Jc26-2-3   67.0   83.0   93.1                   153.4                     10.0                329.6
           15    104    3971.84  WWHT  Jc26-2-3   68.4   84.0   93.5                   153.4                     10.0                329.6
           15    105     992.96  COTP  Jc26-2-3   73.0   87.0   95.0                   153.4                     10.0                329.6
           15    106    2482.40  RICE  Jc26-2-3   68.4   84.0   93.5                   153.4                     10.0                329.6
           15    107    2482.40  CORN  Jc26-2-3   73.0   87.0   95.0                   153.4                     10.0                329.6
           16    108   12661.78  BERM  Jc26-2-3   71.7   86.2   94.6                   153.4                     10.0                329.6
           16    109     361.19  ORAN  Jc26-2-3   67.0   83.0   93.1                   153.4                     10.0                329.6
           16    110    7415.52  WWHT  Zg9-3a-3   68.4   84.0   93.5                   166.2                    180.0                230.0
           16    111   20910.10  WWHT  Jc26-2-3   68.4   84.0   93.5                   153.4                     10.0                329.6
           16    112    1853.88  COTP  Zg9-3a-3   73.0   87.0   95.0                   166.2                    180.0                230.0
           16    113    5227.52  COTP  Jc26-2-3   73.0   87.0   95.0                   153.4                     10.0                329.6
           16    114    4634.69  RICE  Zg9-3a-3   68.4   84.0   93.5                   166.2                    180.0                230.0
           16    115   13068.81  RICE  Jc26-2-3   68.4   84.0   93.5                   153.4                     10.0                329.6
           16    116    4634.69  CORN  Zg9-3a-3   73.0   87.0   95.0                   166.2                    180.0                230.0
           16    117   13068.81  CORN  Jc26-2-3   73.0   87.0   95.0                   153.4                     10.0                329.6
           17    118    4293.68  BERM  Zg9-3a-3   71.7   86.2   94.6                   166.2                    180.0                230.0
           17    119       9.15  ORAN  Re1-1-2a   59.3   77.0   89.9                    75.6                    150.0                448.9
           17    120   18473.63  WWHT  Zg9-3a-3   68.4   84.0   93.5                   166.2                    180.0                230.0
           17    121    4618.41  COTP  Zg9-3a-3   73.0   87.0   95.0                   166.2                    180.0                230.0
           17    122   11546.02  RICE  Zg9-3a-3   68.4   84.0   93.5                   166.2                    180.0                230.0
           17    123   11546.02  CORN  Zg9-3a-3   73.0   87.0   95.0                   166.2                    180.0                230.0

         HRU Input Summary Table 2:
          Sub   HRU   Area(ha)         SoilName Hydgrp MaxRtDpth(mm) Albedo USLE_K USLE_P USLE_LS ProfileAWC(mm) IniSoilH2O(mm)
            1      1    1765.82 Jc26-2-3a-106      D          1000.00   0.10   0.33   1.00    0.38     10.000          5.453
            1      2      49.95 Jc26-2-3a-106      D          1000.00   0.10   0.33   1.00    0.40     10.000          5.453
            1      3    5783.66 Jc26-2-3a-106      D          1000.00   0.10   0.33   1.00    0.18     10.000          5.453
            1      4    1445.92 Jc26-2-3a-106      D          1000.00   0.10   0.33   1.00    0.18     10.000          5.453
            1      5    3614.79 Jc26-2-3a-106      D           900.00   0.10   0.33   1.00    0.18     10.000          5.453
            1      6    3614.79 Jc26-2-3a-106      D          1000.00   0.10   0.33   1.00    0.18     10.000          5.453
            2      7    2421.42 Jc26-2-3a-106      D          1000.00   0.10   0.33   1.00    0.35     10.000          5.453
            2      8     138.83 Jc26-2-3a-106      D          1000.00   0.10   0.33   1.00    0.35     10.000          5.453
            2      9    4523.21 Jc26-2-3a-106      D          1000.00   0.10   0.33   1.00    0.17     10.000          5.453
            2     10    1130.80 Jc26-2-3a-106      D          1000.00   0.10   0.33   1.00    0.17     10.000          5.453
            2     11    2827.00 Jc26-2-3a-106      D           900.00   0.10   0.33   1.00    0.17     10.000          5.453
            2     12    2827.00 Jc26-2-3a-106      D          1000.00   0.10   0.33   1.00    0.17     10.000          5.453
            3     13    1457.50 Jc26-2-3a-106      D          1000.00   0.10   0.33   1.00    0.30     10.000          5.453
            3     14      80.28 Jc26-2-3a-106      D          1000.00   0.10   0.33   1.00    0.28     10.000          5.453
            3     15    2642.86 Jc26-2-3a-106      D          1000.00   0.10   0.33   1.00    0.17     10.000          5.453
            3     16     660.71 Jc26-2-3a-106      D          1000.00   0.10   0.33   1.00    0.17     10.000          5.453
            3     17    1651.79 Jc26-2-3a-106      D           900.00   0.10   0.33   1.00    0.17     10.000          5.453
            3     18    1651.79 Jc26-2-3a-106      D          1000.00   0.10   0.33   1.00    0.17     10.000          5.453
            4     19     326.60 Jc26-2-3a-106      D          1000.00   0.10   0.33   1.00    0.35     10.000          5.453
            4     20    6352.74 Jc26-2-3a-106      D          1000.00   0.10   0.33   1.00    0.35     10.000          5.453
            4     21   14177.65 Jc26-2-3a-106      D          1000.00   0.10   0.33   1.00    0.16     10.000          5.453
            4     22    3544.41 Jc26-2-3a-106      D          1000.00   0.10   0.33   1.00    0.16     10.000          5.453
            4     23    8861.03 Jc26-2-3a-106      D           900.00   0.10   0.33   1.00    0.16     10.000          5.453
            4     24    8861.03 Jc26-2-3a-106      D          1000.00   0.10   0.33   1.00    0.16     10.000          5.453
            5     25     510.89 Jc26-2-3a-106      D          1000.00   0.10   0.33   1.00    0.38     10.000          5.453
            5     26     129.90 Jc26-2-3a-106      D          1000.00   0.10   0.33   1.00    0.35     10.000          5.453
            5     27     843.78 Jc26-2-3a-106      D          1000.00   0.10   0.33   1.00    0.18     10.000          5.453
            5     28     210.94 Jc26-2-3a-106      D          1000.00   0.10   0.33   1.00    0.18     10.000          5.453
            5     29     527.36 Jc26-2-3a-106      D           900.00   0.10   0.33   1.00    0.18     10.000          5.453
            5     30     527.36 Jc26-2-3a-106      D          1000.00   0.10   0.33   1.00    0.18     10.000          5.453
            6     31    7676.62 Jc26-2-3a-106      D          1000.00   0.10   0.33   1.00    0.31     10.000          5.453
            6     32    1127.85 Re1-1-2a-231       C          1000.00   0.15   0.30   1.00    0.31    150.000         81.788
            6     33    2943.01 Jc26-2-3a-106      D          1000.00   0.10   0.33   1.00    0.33     10.000          5.453
            6     34    4790.04 Re1-1-2a-231       C          1000.00   0.15   0.30   1.00    0.18    150.000         81.788
            6     35   10541.72 Jc26-2-3a-106      D          1000.00   0.10   0.33   1.00    0.16     10.000          5.453
            6     36    1197.51 Re1-1-2a-231       C          1000.00   0.15   0.30   1.00    0.18    150.000         81.788
            6     37    2635.43 Jc26-2-3a-106      D          1000.00   0.10   0.33   1.00    0.16     10.000          5.453
            6     38    2993.77 Re1-1-2a-231       C           900.00   0.15   0.30   1.00    0.18    150.000         81.788
            6     39    6588.57 Jc26-2-3a-106      D           900.00   0.10   0.33   1.00    0.16     10.000          5.453
            6     40    2993.77 Re1-1-2a-231       C          1000.00   0.15   0.30   1.00    0.18    150.000         81.788
            6     41    6588.57 Jc26-2-3a-106      D          1000.00   0.10   0.33   1.00    0.16     10.000          5.453
            7     42    1816.64 Jc26-2-3a-106      D          1000.00   0.10   0.33   1.00    0.28     10.000          5.453
            7     43      66.84 Jc26-2-3a-106      D          1000.00   0.10   0.33   1.00    0.26     10.000          5.453
            7     44    3974.58 Jc26-2-3a-106      D          1000.00   0.10   0.33   1.00    0.16     10.000          5.453
            7     45     993.65 Jc26-2-3a-106      D          1000.00   0.10   0.33   1.00    0.16     10.000          5.453
            7     46    2484.11 Jc26-2-3a-106      D           900.00   0.10   0.33   1.00    0.16     10.000          5.453
            7     47    2484.11 Jc26-2-3a-106      D          1000.00   0.10   0.33   1.00    0.16     10.000          5.453
            8     48    6752.10 Jc26-2-3a-106      D          1000.00   0.10   0.33   1.00    0.36     10.000          5.453
            8     49    5768.89 Jc26-2-3a-106      D          1000.00   0.10   0.33   1.00    0.31     10.000          5.453
            8     50    7869.94 Jc26-2-3a-106      D          1000.00   0.10   0.33   1.00    0.23     10.000          5.453
            8     51    1967.49 Jc26-2-3a-106      D          1000.00   0.10   0.33   1.00    0.23     10.000          5.453
            8     52    4918.71 Jc26-2-3a-106      D           900.00   0.10   0.33   1.00    0.23     10.000          5.453
            8     53    4918.71 Jc26-2-3a-106      D          1000.00   0.10   0.33   1.00    0.23     10.000          5.453
            9     54    2791.60 Re1-1-2a-231       C          1000.00   0.15   0.30   1.00    0.27    150.000         81.788
            9     55    1129.43 D-SS-36            D          1000.00   0.13   0.23   1.00    0.29    120.000         65.430
            9     56    1667.01 Jc26-2-3a-106      D          1000.00   0.10   0.33   1.00    0.35     10.000          5.453
            9     57    3848.80 Re1-1-2a-231       C          1000.00   0.15   0.30   1.00    0.35    150.000         81.788
            9     58    2427.52 D-SS-36            D          1000.00   0.13   0.23   1.00    0.31    120.000         65.430
            9     59   10792.76 Re1-1-2a-231       C          1000.00   0.15   0.30   1.00    0.27    150.000         81.788
            9     60   10212.11 D-SS-36            D          1000.00   0.13   0.23   1.00    0.29    120.000         65.430
            9     61    2698.19 Re1-1-2a-231       C          1000.00   0.15   0.30   1.00    0.27    150.000         81.788
            9     62    2553.03 D-SS-36            D          1000.00   0.13   0.23   1.00    0.29    120.000         65.430
            9     63    6745.48 Re1-1-2a-231       C           900.00   0.15   0.30   1.00    0.27    150.000         81.788
            9     64    6382.57 D-SS-36            D           900.00   0.13   0.23   1.00    0.29    120.000         65.430
            9     65    6745.48 Re1-1-2a-231       C          1000.00   0.15   0.30   1.00    0.27    150.000         81.788
            9     66    6382.57 D-SS-36            D          1000.00   0.13   0.23   1.00    0.29    120.000         65.430
           10     67    1776.35 Jc26-2-3a-106      D          1000.00   0.10   0.33   1.00    0.31     10.000          5.453
           10     68     114.84 Jc26-2-3a-106      D          1000.00   0.10   0.33   1.00    0.35     10.000          5.453
           10     69    3409.87 Jc26-2-3a-106      D          1000.00   0.10   0.33   1.00    0.17     10.000          5.453
           10     70     852.47 Jc26-2-3a-106      D          1000.00   0.10   0.33   1.00    0.17     10.000          5.453
           10     71    2131.17 Jc26-2-3a-106      D           900.00   0.10   0.33   1.00    0.17     10.000          5.453
           10     72    2131.17 Jc26-2-3a-106      D          1000.00   0.10   0.33   1.00    0.17     10.000          5.453
           11     73    1995.32 Jc26-2-3a-106      D          1000.00   0.10   0.33   1.00    0.36     10.000          5.453
           11     74     328.73 Jc26-2-3a-106      D          1000.00   0.10   0.33   1.00    0.40     10.000          5.453
           11     75    2517.88 Jc26-2-3a-106      D          1000.00   0.10   0.33   1.00    0.17     10.000          5.453
           11     76     629.47 Jc26-2-3a-106      D          1000.00   0.10   0.33   1.00    0.17     10.000          5.453
           11     77    1573.67 Jc26-2-3a-106      D           900.00   0.10   0.33   1.00    0.17     10.000          5.453
           11     78    1573.67 Jc26-2-3a-106      D          1000.00   0.10   0.33   1.00    0.17     10.000          5.453
           12     79     131.92 Jc26-2-3a-106      D          1000.00   0.10   0.33   1.00    0.31     10.000          5.453
           12     80      79.01 Jc26-2-3a-106      D          1000.00   0.10   0.33   1.00    0.18     10.000          5.453
           12     81     351.82 Jc26-2-3a-106      D          1000.00   0.10   0.33   1.00    0.20     10.000          5.453
           12     82      87.95 Jc26-2-3a-106      D          1000.00   0.10   0.33   1.00    0.20     10.000          5.453
           12     83     219.88 Jc26-2-3a-106      D           900.00   0.10   0.33   1.00    0.20     10.000          5.453
           12     84     219.88 Jc26-2-3a-106      D          1000.00   0.10   0.33   1.00    0.20     10.000          5.453
           13     85    3499.28 Jc26-2-3a-106      D          1000.00   0.10   0.33   1.00    0.31     10.000          5.453
           13     86     230.44 Jc26-2-3a-106      D          1000.00   0.10   0.33   1.00    0.35     10.000          5.453
           13     87    6732.26 Jc26-2-3a-106      D          1000.00   0.10   0.33   1.00    0.18     10.000          5.453
           13     88    1683.07 Jc26-2-3a-106      D          1000.00   0.10   0.33   1.00    0.18     10.000          5.453
           13     89    4207.66 Jc26-2-3a-106      D           900.00   0.10   0.33   1.00    0.18     10.000          5.453
           13     90    4207.66 Jc26-2-3a-106      D          1000.00   0.10   0.33   1.00    0.18     10.000          5.453
           14     91    1862.90 Zg9-3a-383         D          1000.00   0.10   0.22   1.00    0.35    180.000         98.145
           14     92    2360.57 Jc26-2-3a-106      D          1000.00   0.10   0.33   1.00    0.35     10.000          5.453
           14     93     103.17 Jc26-2-3a-106      D          1000.00   0.10   0.33   1.00    0.46     10.000          5.453
           14     94    6971.52 Zg9-3a-383         D          1000.00   0.10   0.22   1.00    0.18    180.000         98.145
           14     95    3975.35 Jc26-2-3a-106      D          1000.00   0.10   0.33   1.00    0.18     10.000          5.453
           14     96    1742.88 Zg9-3a-383         D          1000.00   0.10   0.22   1.00    0.18    180.000         98.145
           14     97     993.84 Jc26-2-3a-106      D          1000.00   0.10   0.33   1.00    0.18     10.000          5.453
           14     98    4357.20 Zg9-3a-383         D           900.00   0.10   0.22   1.00    0.18    180.000         98.145
           14     99    2484.59 Jc26-2-3a-106      D           900.00   0.10   0.33   1.00    0.18     10.000          5.453
           14    100    4357.20 Zg9-3a-383         D          1000.00   0.10   0.22   1.00    0.18    180.000         98.145
           14    101    2484.59 Jc26-2-3a-106      D          1000.00   0.10   0.33   1.00    0.18     10.000          5.453
           15    102    2906.52 Jc26-2-3a-106      D          1000.00   0.10   0.33   1.00    0.36     10.000          5.453
           15    103    1532.70 Jc26-2-3a-106      D          1000.00   0.10   0.33   1.00    0.26     10.000          5.453
           15    104    3971.84 Jc26-2-3a-106      D          1000.00   0.10   0.33   1.00    0.17     10.000          5.453
           15    105     992.96 Jc26-2-3a-106      D          1000.00   0.10   0.33   1.00    0.17     10.000          5.453
           15    106    2482.40 Jc26-2-3a-106      D           900.00   0.10   0.33   1.00    0.17     10.000          5.453
           15    107    2482.40 Jc26-2-3a-106      D          1000.00   0.10   0.33   1.00    0.17     10.000          5.453
           16    108   12661.78 Jc26-2-3a-106      D          1000.00   0.10   0.33   1.00    0.38     10.000          5.453
           16    109     361.19 Jc26-2-3a-106      D          1000.00   0.10   0.33   1.00    0.35     10.000          5.453
           16    110    7415.52 Zg9-3a-383         D          1000.00   0.10   0.22   1.00    0.17    180.000         98.145
           16    111   20910.10 Jc26-2-3a-106      D          1000.00   0.10   0.33   1.00    0.18     10.000          5.453
           16    112    1853.88 Zg9-3a-383         D          1000.00   0.10   0.22   1.00    0.17    180.000         98.145
           16    113    5227.52 Jc26-2-3a-106      D          1000.00   0.10   0.33   1.00    0.18     10.000          5.453
           16    114    4634.69 Zg9-3a-383         D           900.00   0.10   0.22   1.00    0.17    180.000         98.145
           16    115   13068.81 Jc26-2-3a-106      D           900.00   0.10   0.33   1.00    0.18     10.000          5.453
           16    116    4634.69 Zg9-3a-383         D          1000.00   0.10   0.22   1.00    0.17    180.000         98.145
           16    117   13068.81 Jc26-2-3a-106      D          1000.00   0.10   0.33   1.00    0.18     10.000          5.453
           17    118    4293.68 Zg9-3a-383         D          1000.00   0.10   0.22   1.00    0.21    180.000         98.145
           17    119       9.15 Re1-1-2a-231       C          1000.00   0.15   0.30   1.00    0.31    150.000         81.788
           17    120   18473.63 Zg9-3a-383         D          1000.00   0.10   0.22   1.00    0.17    180.000         98.145
           17    121    4618.41 Zg9-3a-383         D          1000.00   0.10   0.22   1.00    0.17    180.000         98.145
           17    122   11546.02 Zg9-3a-383         D           900.00   0.10   0.22   1.00    0.17    180.000         98.145
           17    123   11546.02 Zg9-3a-383         D          1000.00   0.10   0.22   1.00    0.17    180.000         98.145

         HRU Input Summary Table 3:
          Sub   HRU   Area(ha) Urban Irrig DrainTiles Pothole Pstcide Biomix Septic
            1      1    1765.82   x                                      0.20 x
            1      2      49.95                                          0.20 x
            1      3    5783.66                                          0.20 x
            1      4    1445.92                                          0.20 x
            1      5    3614.79                                          0.20 x
            1      6    3614.79                                          0.20 x
            2      7    2421.42   x                                      0.20 x
            2      8     138.83                                          0.20 x
            2      9    4523.21                                          0.20 x
            2     10    1130.80                                          0.20 x
            2     11    2827.00                                          0.20 x
            2     12    2827.00                                          0.20 x
            3     13    1457.50   x                                      0.20 x
            3     14      80.28                                          0.20 x
            3     15    2642.86                                          0.20 x
            3     16     660.71                                          0.20 x
            3     17    1651.79                                          0.20 x
            3     18    1651.79                                          0.20 x
            4     19     326.60                                          0.20 x
            4     20    6352.74   x                                      0.20 x
            4     21   14177.65                                          0.20 x
            4     22    3544.41                                          0.20 x
            4     23    8861.03                                          0.20 x
            4     24    8861.03                                          0.20 x
            5     25     510.89   x                                      0.20 x
            5     26     129.90                                          0.20 x
            5     27     843.78                                          0.20 x
            5     28     210.94                                          0.20 x
            5     29     527.36                                          0.20 x
            5     30     527.36                                          0.20 x
            6     31    7676.62   x                                      0.20 x
            6     32    1127.85                                          0.20 x
            6     33    2943.01                                          0.20 x
            6     34    4790.04                                          0.20 x
            6     35   10541.72                                          0.20 x
            6     36    1197.51                                          0.20 x
            6     37    2635.43                                          0.20 x
            6     38    2993.77                                          0.20 x
            6     39    6588.57                                          0.20 x
            6     40    2993.77                                          0.20 x
            6     41    6588.57                                          0.20 x
            7     42    1816.64   x                                      0.20 x
            7     43      66.84                                          0.20 x
            7     44    3974.58                                          0.20 x
            7     45     993.65                                          0.20 x
            7     46    2484.11                                          0.20 x
            7     47    2484.11                                          0.20 x
            8     48    6752.10   x                                      0.20 x
            8     49    5768.89                                          0.20 x
            8     50    7869.94                                          0.20 x
            8     51    1967.49                                          0.20 x
            8     52    4918.71                                          0.20 x
            8     53    4918.71                                          0.20 x
            9     54    2791.60   x                                      0.20 x
            9     55    1129.43   x                                      0.20 x
            9     56    1667.01   x                                      0.20 x
            9     57    3848.80                                          0.20 x
            9     58    2427.52                                          0.20 x
            9     59   10792.76                                          0.20 x
            9     60   10212.11                                          0.20 x
            9     61    2698.19                                          0.20 x
            9     62    2553.03                                          0.20 x
            9     63    6745.48                                          0.20 x
            9     64    6382.57                                          0.20 x
            9     65    6745.48                                          0.20 x
            9     66    6382.57                                          0.20 x
           10     67    1776.35   x                                      0.20 x
           10     68     114.84                                          0.20 x
           10     69    3409.87                                          0.20 x
           10     70     852.47                                          0.20 x
           10     71    2131.17                                          0.20 x
           10     72    2131.17                                          0.20 x
           11     73    1995.32   x                                      0.20 x
           11     74     328.73                                          0.20 x
           11     75    2517.88                                          0.20 x
           11     76     629.47                                          0.20 x
           11     77    1573.67                                          0.20 x
           11     78    1573.67                                          0.20 x
           12     79     131.92   x                                      0.20 x
           12     80      79.01                                          0.20 x
           12     81     351.82                                          0.20 x
           12     82      87.95                                          0.20 x
           12     83     219.88                                          0.20 x
           12     84     219.88                                          0.20 x
           13     85    3499.28   x                                      0.20 x
           13     86     230.44                                          0.20 x
           13     87    6732.26                                          0.20 x
           13     88    1683.07                                          0.20 x
           13     89    4207.66                                          0.20 x
           13     90    4207.66                                          0.20 x
           14     91    1862.90   x                                      0.20 x
           14     92    2360.57   x                                      0.20 x
           14     93     103.17                                          0.20 x
           14     94    6971.52                                          0.20 x
           14     95    3975.35                                          0.20 x
           14     96    1742.88                                          0.20 x
           14     97     993.84                                          0.20 x
           14     98    4357.20                                          0.20 x
           14     99    2484.59                                          0.20 x
           14    100    4357.20                                          0.20 x
           14    101    2484.59                                          0.20 x
           15    102    2906.52   x                                      0.20 x
           15    103    1532.70                                          0.20 x
           15    104    3971.84                                          0.20 x
           15    105     992.96                                          0.20 x
           15    106    2482.40                                          0.20 x
           15    107    2482.40                                          0.20 x
           16    108   12661.78   x                                      0.20 x
           16    109     361.19                                          0.20 x
           16    110    7415.52                                          0.20 x
           16    111   20910.10                                          0.20 x
           16    112    1853.88                                          0.20 x
           16    113    5227.52                                          0.20 x
           16    114    4634.69                                          0.20 x
           16    115   13068.81                                          0.20 x
           16    116    4634.69                                          0.20 x
           16    117   13068.81                                          0.20 x
           17    118    4293.68   x                                      0.20 x
           17    119       9.15                                          0.20 x
           17    120   18473.63                                          0.20 x
           17    121    4618.41                                          0.20 x
           17    122   11546.02                                          0.20 x
           17    123   11546.02                                          0.20 x

         HRU Input Summary Table 4 (Groundwater):
          Sub   HRU   Area(ha) GWdelay(days), GWalpha(days) GWQmin(mm) GWrevap Revapmin(mm) Deepfr NO3(ppm) SolP(ppm)
            1      1    1765.82        31.000         0.048   1000.000   0.020      750.000  0.050    0.000     0.000
            1      2      49.95        31.000         0.048   1000.000   0.020      750.000  0.050    0.000     0.000
            1      3    5783.66        31.000         0.048   1000.000   0.020      750.000  0.050    0.000     0.000
            1      4    1445.92        31.000         0.048   1000.000   0.020      750.000  0.050    0.000     0.000
            1      5    3614.79        31.000         0.048   1000.000   0.020      750.000  0.050    0.000     0.000
            1      6    3614.79        31.000         0.048   1000.000   0.020      750.000  0.050    0.000     0.000
            2      7    2421.42        31.000         0.048   1000.000   0.020      750.000  0.050    0.000     0.000
            2      8     138.83        31.000         0.048   1000.000   0.020      750.000  0.050    0.000     0.000
            2      9    4523.21        31.000         0.048   1000.000   0.020      750.000  0.050    0.000     0.000
            2     10    1130.80        31.000         0.048   1000.000   0.020      750.000  0.050    0.000     0.000
            2     11    2827.00        31.000         0.048   1000.000   0.020      750.000  0.050    0.000     0.000
            2     12    2827.00        31.000         0.048   1000.000   0.020      750.000  0.050    0.000     0.000
            3     13    1457.50        31.000         0.048   1000.000   0.020      750.000  0.050    0.000     0.000
            3     14      80.28        31.000         0.048   1000.000   0.020      750.000  0.050    0.000     0.000
            3     15    2642.86        31.000         0.048   1000.000   0.020      750.000  0.050    0.000     0.000
            3     16     660.71        31.000         0.048   1000.000   0.020      750.000  0.050    0.000     0.000
            3     17    1651.79        31.000         0.048   1000.000   0.020      750.000  0.050    0.000     0.000
            3     18    1651.79        31.000         0.048   1000.000   0.020      750.000  0.050    0.000     0.000
            4     19     326.60        31.000         0.048   1000.000   0.020      750.000  0.050    0.000     0.000
            4     20    6352.74        31.000         0.048   1000.000   0.020      750.000  0.050    0.000     0.000
            4     21   14177.65        31.000         0.048   1000.000   0.020      750.000  0.050    0.000     0.000
            4     22    3544.41        31.000         0.048   1000.000   0.020      750.000  0.050    0.000     0.000
            4     23    8861.03        31.000         0.048   1000.000   0.020      750.000  0.050    0.000     0.000
            4     24    8861.03        31.000         0.048   1000.000   0.020      750.000  0.050    0.000     0.000
            5     25     510.89        31.000         0.048   1000.000   0.020      750.000  0.050    0.000     0.000
            5     26     129.90        31.000         0.048   1000.000   0.020      750.000  0.050    0.000     0.000
            5     27     843.78        31.000         0.048   1000.000   0.020      750.000  0.050    0.000     0.000
            5     28     210.94        31.000         0.048   1000.000   0.020      750.000  0.050    0.000     0.000
            5     29     527.36        31.000         0.048   1000.000   0.020      750.000  0.050    0.000     0.000
            5     30     527.36        31.000         0.048   1000.000   0.020      750.000  0.050    0.000     0.000
            6     31    7676.62        31.000         0.048   1000.000   0.020      750.000  0.050    0.000     0.000
            6     32    1127.85        31.000         0.048   1000.000   0.020      750.000  0.050    0.000     0.000
            6     33    2943.01        31.000         0.048   1000.000   0.020      750.000  0.050    0.000     0.000
            6     34    4790.04        31.000         0.048   1000.000   0.020      750.000  0.050    0.000     0.000
            6     35   10541.72        31.000         0.048   1000.000   0.020      750.000  0.050    0.000     0.000
            6     36    1197.51        31.000         0.048   1000.000   0.020      750.000  0.050    0.000     0.000
            6     37    2635.43        31.000         0.048   1000.000   0.020      750.000  0.050    0.000     0.000
            6     38    2993.77        31.000         0.048   1000.000   0.020      750.000  0.050    0.000     0.000
            6     39    6588.57        31.000         0.048   1000.000   0.020      750.000  0.050    0.000     0.000
            6     40    2993.77        31.000         0.048   1000.000   0.020      750.000  0.050    0.000     0.000
            6     41    6588.57        31.000         0.048   1000.000   0.020      750.000  0.050    0.000     0.000
            7     42    1816.64        31.000         0.048   1000.000   0.020      750.000  0.050    0.000     0.000
            7     43      66.84        31.000         0.048   1000.000   0.020      750.000  0.050    0.000     0.000
            7     44    3974.58        31.000         0.048   1000.000   0.020      750.000  0.050    0.000     0.000
            7     45     993.65        31.000         0.048   1000.000   0.020      750.000  0.050    0.000     0.000
            7     46    2484.11        31.000         0.048   1000.000   0.020      750.000  0.050    0.000     0.000
            7     47    2484.11        31.000         0.048   1000.000   0.020      750.000  0.050    0.000     0.000
            8     48    6752.10        31.000         0.048   1000.000   0.020      750.000  0.050    0.000     0.000
            8     49    5768.89        31.000         0.048   1000.000   0.020      750.000  0.050    0.000     0.000
            8     50    7869.94        31.000         0.048   1000.000   0.020      750.000  0.050    0.000     0.000
            8     51    1967.49        31.000         0.048   1000.000   0.020      750.000  0.050    0.000     0.000
            8     52    4918.71        31.000         0.048   1000.000   0.020      750.000  0.050    0.000     0.000
            8     53    4918.71        31.000         0.048   1000.000   0.020      750.000  0.050    0.000     0.000
            9     54    2791.60        31.000         0.048   1000.000   0.020      750.000  0.050    0.000     0.000
            9     55    1129.43        31.000         0.048   1000.000   0.020      750.000  0.050    0.000     0.000
            9     56    1667.01        31.000         0.048   1000.000   0.020      750.000  0.050    0.000     0.000
            9     57    3848.80        31.000         0.048   1000.000   0.020      750.000  0.050    0.000     0.000
            9     58    2427.52        31.000         0.048   1000.000   0.020      750.000  0.050    0.000     0.000
            9     59   10792.76        31.000         0.048   1000.000   0.020      750.000  0.050    0.000     0.000
            9     60   10212.11        31.000         0.048   1000.000   0.020      750.000  0.050    0.000     0.000
            9     61    2698.19        31.000         0.048   1000.000   0.020      750.000  0.050    0.000     0.000
            9     62    2553.03        31.000         0.048   1000.000   0.020      750.000  0.050    0.000     0.000
            9     63    6745.48        31.000         0.048   1000.000   0.020      750.000  0.050    0.000     0.000
            9     64    6382.57        31.000         0.048   1000.000   0.020      750.000  0.050    0.000     0.000
            9     65    6745.48        31.000         0.048   1000.000   0.020      750.000  0.050    0.000     0.000
            9     66    6382.57        31.000         0.048   1000.000   0.020      750.000  0.050    0.000     0.000
           10     67    1776.35        31.000         0.048   1000.000   0.020      750.000  0.050    0.000     0.000
           10     68     114.84        31.000         0.048   1000.000   0.020      750.000  0.050    0.000     0.000
           10     69    3409.87        31.000         0.048   1000.000   0.020      750.000  0.050    0.000     0.000
           10     70     852.47        31.000         0.048   1000.000   0.020      750.000  0.050    0.000     0.000
           10     71    2131.17        31.000         0.048   1000.000   0.020      750.000  0.050    0.000     0.000
           10     72    2131.17        31.000         0.048   1000.000   0.020      750.000  0.050    0.000     0.000
           11     73    1995.32        31.000         0.048   1000.000   0.020      750.000  0.050    0.000     0.000
           11     74     328.73        31.000         0.048   1000.000   0.020      750.000  0.050    0.000     0.000
           11     75    2517.88        31.000         0.048   1000.000   0.020      750.000  0.050    0.000     0.000
           11     76     629.47        31.000         0.048   1000.000   0.020      750.000  0.050    0.000     0.000
           11     77    1573.67        31.000         0.048   1000.000   0.020      750.000  0.050    0.000     0.000
           11     78    1573.67        31.000         0.048   1000.000   0.020      750.000  0.050    0.000     0.000
           12     79     131.92        31.000         0.048   1000.000   0.020      750.000  0.050    0.000     0.000
           12     80      79.01        31.000         0.048   1000.000   0.020      750.000  0.050    0.000     0.000
           12     81     351.82        31.000         0.048   1000.000   0.020      750.000  0.050    0.000     0.000
           12     82      87.95        31.000         0.048   1000.000   0.020      750.000  0.050    0.000     0.000
           12     83     219.88        31.000         0.048   1000.000   0.020      750.000  0.050    0.000     0.000
           12     84     219.88        31.000         0.048   1000.000   0.020      750.000  0.050    0.000     0.000
           13     85    3499.28        31.000         0.048   1000.000   0.020      750.000  0.050    0.000     0.000
           13     86     230.44        31.000         0.048   1000.000   0.020      750.000  0.050    0.000     0.000
           13     87    6732.26        31.000         0.048   1000.000   0.020      750.000  0.050    0.000     0.000
           13     88    1683.07        31.000         0.048   1000.000   0.020      750.000  0.050    0.000     0.000
           13     89    4207.66        31.000         0.048   1000.000   0.020      750.000  0.050    0.000     0.000
           13     90    4207.66        31.000         0.048   1000.000   0.020      750.000  0.050    0.000     0.000
           14     91    1862.90        31.000         0.048   1000.000   0.020      750.000  0.050    0.000     0.000
           14     92    2360.57        31.000         0.048   1000.000   0.020      750.000  0.050    0.000     0.000
           14     93     103.17        31.000         0.048   1000.000   0.020      750.000  0.050    0.000     0.000
           14     94    6971.52        31.000         0.048   1000.000   0.020      750.000  0.050    0.000     0.000
           14     95    3975.35        31.000         0.048   1000.000   0.020      750.000  0.050    0.000     0.000
           14     96    1742.88        31.000         0.048   1000.000   0.020      750.000  0.050    0.000     0.000
           14     97     993.84        31.000         0.048   1000.000   0.020      750.000  0.050    0.000     0.000
           14     98    4357.20        31.000         0.048   1000.000   0.020      750.000  0.050    0.000     0.000
           14     99    2484.59        31.000         0.048   1000.000   0.020      750.000  0.050    0.000     0.000
           14    100    4357.20        31.000         0.048   1000.000   0.020      750.000  0.050    0.000     0.000
           14    101    2484.59        31.000         0.048   1000.000   0.020      750.000  0.050    0.000     0.000
           15    102    2906.52        31.000         0.048   1000.000   0.020      750.000  0.050    0.000     0.000
           15    103    1532.70        31.000         0.048   1000.000   0.020      750.000  0.050    0.000     0.000
           15    104    3971.84        31.000         0.048   1000.000   0.020      750.000  0.050    0.000     0.000
           15    105     992.96        31.000         0.048   1000.000   0.020      750.000  0.050    0.000     0.000
           15    106    2482.40        31.000         0.048   1000.000   0.020      750.000  0.050    0.000     0.000
           15    107    2482.40        31.000         0.048   1000.000   0.020      750.000  0.050    0.000     0.000
           16    108   12661.78        31.000         0.048   1000.000   0.020      750.000  0.050    0.000     0.000
           16    109     361.19        31.000         0.048   1000.000   0.020      750.000  0.050    0.000     0.000
           16    110    7415.52        31.000         0.048   1000.000   0.020      750.000  0.050    0.000     0.000
           16    111   20910.10        31.000         0.048   1000.000   0.020      750.000  0.050    0.000     0.000
           16    112    1853.88        31.000         0.048   1000.000   0.020      750.000  0.050    0.000     0.000
           16    113    5227.52        31.000         0.048   1000.000   0.020      750.000  0.050    0.000     0.000
           16    114    4634.69        31.000         0.048   1000.000   0.020      750.000  0.050    0.000     0.000
           16    115   13068.81        31.000         0.048   1000.000   0.020      750.000  0.050    0.000     0.000
           16    116    4634.69        31.000         0.048   1000.000   0.020      750.000  0.050    0.000     0.000
           16    117   13068.81        31.000         0.048   1000.000   0.020      750.000  0.050    0.000     0.000
           17    118    4293.68        31.000         0.048   1000.000   0.020      750.000  0.050    0.000     0.000
           17    119       9.15        31.000         0.048   1000.000   0.020      750.000  0.050    0.000     0.000
           17    120   18473.63        31.000         0.048   1000.000   0.020      750.000  0.050    0.000     0.000
           17    121    4618.41        31.000         0.048   1000.000   0.020      750.000  0.050    0.000     0.000
           17    122   11546.02        31.000         0.048   1000.000   0.020      750.000  0.050    0.000     0.000
           17    123   11546.02        31.000         0.048   1000.000   0.020      750.000  0.050    0.000     0.000

         Tributary/Main Channel Characteristics
              |--------------Tributary--------------------|---------------------Main---------------------------|
          Sub  Length(km) Slope Width(m) Cond(mm/hr)     N Length(km) Slope Width(m) Depth(m) Cond(mm/hr)     N
            1       25.29 0.000    27.38      0.0000 0.014      25.29 0.000    27.38     1.00      0.0000 0.014
            2       29.69 0.000    24.88      0.0000 0.014      29.69 0.000    24.88     0.94      0.0000 0.014
            3       28.28 0.000    18.08      0.0000 0.014      28.28 0.000    18.08     0.76      0.0000 0.014
            4       19.65 0.000    48.45      0.0000 0.014      19.66 0.000    48.45     1.46      0.0000 0.014
            5        8.19 0.000     9.42      0.0000 0.014       8.19 0.000    50.33     1.50      0.0000 0.014
            6       42.47 0.000    53.75      0.0000 0.014      42.47 0.000    69.45     1.85      0.0000 0.014
            7       16.69 0.000    22.60      0.0000 0.014      16.69 0.000    49.41     1.48      0.0000 0.014
            8       42.27 0.000    41.24      0.0000 0.014      42.27 0.000   116.56     2.62      0.0000 0.014
            9       35.75 0.000    62.49      0.0000 0.014      35.75 0.000   100.09     2.37      0.0000 0.014
           10       15.91 0.000    20.95      0.0000 0.014      15.91 0.000    36.85     1.22      0.0000 0.014
           11       10.00 0.000    18.70      0.0000 0.014      10.00 0.000   103.71     2.42      0.0000 0.014
           12        5.90 0.000     5.41      0.0000 0.014       5.90 0.000    50.15     1.49      0.0000 0.014
           13       21.24 0.000    31.51      0.0000 0.014      21.24 0.000    83.52     2.10      0.0000 0.014
           14       42.53 0.000    40.85      0.0000 0.014      42.53 0.000    40.85     1.30      0.0000 0.014
           15       14.07 0.000    25.41      0.0000 0.014      14.07 0.000    25.41     0.95      0.0000 0.014
           16       51.22 0.000    73.22      0.0000 0.014      51.22 0.000    73.22     1.92      0.0000 0.014
           17       26.94 0.000    54.01      0.0000 0.014      26.94 0.000    54.01     1.57      0.0000 0.014
