1
    SWAT Mar 17 2015    VER 2012/Rev 636_smrt                                                            0/ 0/   0      0: 0: 0

    General Input/Output section (file.cio):                                        
    11/6/2024 12:00:00 AM ARCGIS-SWAT interface AV                                  
                                                                                    
         Number of years in run:   36
         Area of watershed:     4627.030 km2
