*PLANT P BALANCE
*DSSAT Cropping System Model Ver. 1.2.3.004 -release    NOV 12, 2024; 12:30:07

*RUN   0

*DSSAT Cropping System Model Ver. 1.2.3.004 -release    NOV 12, 2024; 12:30:07

*RUN   0

*DSSAT Cropping System Model Ver. 1.2.3.004 -release    NOV 12, 2024; 12:30:07

*RUN   0

*DSSAT Cropping System Model Ver. 1.2.3.004 -release    NOV 12, 2024; 12:30:07

*RUN   0

*DSSAT Cropping System Model Ver. 1.2.3.004 -release    NOV 12, 2024; 12:30:07

*RUN   0

*DSSAT Cropping System Model Ver. 1.2.3.004 -release    NOV 12, 2024; 12:30:07

*RUN   0

*DSSAT Cropping System Model Ver. 1.2.3.004 -release    NOV 12, 2024; 12:30:07

*RUN   0

*DSSAT Cropping System Model Ver. 1.2.3.004 -release    NOV 12, 2024; 12:30:07

*RUN   0

*DSSAT Cropping System Model Ver. 1.2.3.004 -release    NOV 12, 2024; 12:30:08

*RUN   0

*DSSAT Cropping System Model Ver. 1.2.3.004 -release    NOV 12, 2024; 12:30:08

*RUN   0

*DSSAT Cropping System Model Ver. 1.2.3.004 -release    NOV 12, 2024; 12:30:08

*RUN   0

*DSSAT Cropping System Model Ver. 1.2.3.004 -release    NOV 12, 2024; 12:30:08

*RUN   0

*DSSAT Cropping System Model Ver. 1.2.3.004 -release    NOV 12, 2024; 12:30:08

*RUN   0

*DSSAT Cropping System Model Ver. 1.2.3.004 -release    NOV 12, 2024; 12:30:08

*RUN   0

*DSSAT Cropping System Model Ver. 1.2.3.004 -release    NOV 12, 2024; 12:30:08

*RUN   0

*DSSAT Cropping System Model Ver. 1.2.3.004 -release    NOV 12, 2024; 12:30:08

*RUN   0

*DSSAT Cropping System Model Ver. 1.2.3.004 -release    NOV 12, 2024; 12:30:08

*RUN   0

*DSSAT Cropping System Model Ver. 1.2.3.004 -release    NOV 12, 2024; 12:30:08

*RUN   0

*DSSAT Cropping System Model Ver. 1.2.3.004 -release    NOV 12, 2024; 12:30:08

*RUN   0

*DSSAT Cropping System Model Ver. 1.2.3.004 -release    NOV 12, 2024; 12:30:08

*RUN   0

*DSSAT Cropping System Model Ver. 1.2.3.004 -release    NOV 12, 2024; 12:30:08

*RUN   0

*DSSAT Cropping System Model Ver. 1.2.3.004 -release    NOV 12, 2024; 12:59:13

*RUN   0

*DSSAT Cropping System Model Ver. 1.2.3.004 -release    NOV 12, 2024; 12:59:13

*RUN   0

*DSSAT Cropping System Model Ver. 1.2.3.004 -release    NOV 12, 2024; 12:59:13

*RUN   0

*DSSAT Cropping System Model Ver. 1.2.3.004 -release    NOV 12, 2024; 12:59:13

*RUN   0

*DSSAT Cropping System Model Ver. 1.2.3.004 -release    NOV 12, 2024; 12:59:13

*RUN   0

*DSSAT Cropping System Model Ver. 1.2.3.004 -release    NOV 12, 2024; 12:59:13

*RUN   0

*DSSAT Cropping System Model Ver. 1.2.3.004 -release    NOV 12, 2024; 12:59:13

*RUN   0

*DSSAT Cropping System Model Ver. 1.2.3.004 -release    NOV 12, 2024; 12:59:13

*RUN   0

*DSSAT Cropping System Model Ver. 1.2.3.004 -release    NOV 12, 2024; 12:59:13

*RUN   0

*DSSAT Cropping System Model Ver. 1.2.3.004 -release    NOV 12, 2024; 12:59:13

*RUN   0

*DSSAT Cropping System Model Ver. 1.2.3.004 -release    NOV 12, 2024; 12:59:13

*RUN   0

*DSSAT Cropping System Model Ver. 1.2.3.004 -release    NOV 12, 2024; 12:59:13

*RUN   0

*DSSAT Cropping System Model Ver. 1.2.3.004 -release    NOV 12, 2024; 12:59:13

*RUN   0

*DSSAT Cropping System Model Ver. 1.2.3.004 -release    NOV 12, 2024; 12:59:14

*RUN   0

*DSSAT Cropping System Model Ver. 1.2.3.004 -release    NOV 12, 2024; 12:59:14

*RUN   0

*DSSAT Cropping System Model Ver. 1.2.3.004 -release    NOV 12, 2024; 12:59:14

*RUN   0

*DSSAT Cropping System Model Ver. 1.2.3.004 -release    NOV 12, 2024; 12:59:14

*RUN   0

*DSSAT Cropping System Model Ver. 1.2.3.004 -release    NOV 12, 2024; 12:59:14

*RUN   0

*DSSAT Cropping System Model Ver. 1.2.3.004 -release    NOV 12, 2024; 12:59:14

*RUN   0

*DSSAT Cropping System Model Ver. 1.2.3.004 -release    NOV 12, 2024; 12:59:14

*RUN   0

*DSSAT Cropping System Model Ver. 1.2.3.004 -release    NOV 12, 2024; 12:59:14

*RUN   0

