*PLANT N OUTPUT FILE
*DSSAT Cropping System Model Ver. 1.2.3.004 -release    NOV 12, 2024; 12:30:07

*RUN   1

@YEAR DOY   DAS   DAP    CNAD    GNAD    VNAD    GN%D    VN%D     NFXC    NUPC    LNAD    SNAD    LN%D    SN%D    SHND   RN%D   NFXD   SNN0C   SNN1C
*DSSAT Cropping System Model Ver. 1.2.3.004 -release    NOV 12, 2024; 12:30:07

*RUN   1

@YEAR DOY   DAS   DAP    CNAD    GNAD    VNAD    GN%D    VN%D     NFXC    NUPC    LNAD    SNAD    LN%D    SN%D    SHND   RN%D   NFXD   SNN0C   SNN1C
*DSSAT Cropping System Model Ver. 1.2.3.004 -release    NOV 12, 2024; 12:30:07

*RUN   1

@YEAR DOY   DAS   DAP    CNAD    GNAD    VNAD    GN%D    VN%D     NFXC    NUPC    LNAD    SNAD    LN%D    SN%D    SHND   RN%D   NFXD   SNN0C   SNN1C
*DSSAT Cropping System Model Ver. 1.2.3.004 -release    NOV 12, 2024; 12:30:07

*RUN   1

@YEAR DOY   DAS   DAP    CNAD    GNAD    VNAD    GN%D    VN%D     NFXC    NUPC    LNAD    SNAD    LN%D    SN%D    SHND   RN%D   NFXD   SNN0C   SNN1C
*DSSAT Cropping System Model Ver. 1.2.3.004 -release    NOV 12, 2024; 12:30:07

*RUN   1

@YEAR DOY   DAS   DAP    CNAD    GNAD    VNAD    GN%D    VN%D     NFXC    NUPC    LNAD    SNAD    LN%D    SN%D    SHND   RN%D   NFXD   SNN0C   SNN1C
*DSSAT Cropping System Model Ver. 1.2.3.004 -release    NOV 12, 2024; 12:30:07

*RUN   1

@YEAR DOY   DAS   DAP    CNAD    GNAD    VNAD    GN%D    VN%D     NFXC    NUPC    LNAD    SNAD    LN%D    SN%D    SHND   RN%D   NFXD   SNN0C   SNN1C
*DSSAT Cropping System Model Ver. 1.2.3.004 -release    NOV 12, 2024; 12:30:07

*RUN   1

@YEAR DOY   DAS   DAP    CNAD    GNAD    VNAD    GN%D    VN%D     NFXC    NUPC    LNAD    SNAD    LN%D    SN%D    SHND   RN%D   NFXD   SNN0C   SNN1C
*DSSAT Cropping System Model Ver. 1.2.3.004 -release    NOV 12, 2024; 12:30:07

*RUN   1

@YEAR DOY   DAS   DAP    CNAD    GNAD    VNAD    GN%D    VN%D     NFXC    NUPC    LNAD    SNAD    LN%D    SN%D    SHND   RN%D   NFXD   SNN0C   SNN1C
*DSSAT Cropping System Model Ver. 1.2.3.004 -release    NOV 12, 2024; 12:30:08

*RUN   1

@YEAR DOY   DAS   DAP    CNAD    GNAD    VNAD    GN%D    VN%D     NFXC    NUPC    LNAD    SNAD    LN%D    SN%D    SHND   RN%D   NFXD   SNN0C   SNN1C
*DSSAT Cropping System Model Ver. 1.2.3.004 -release    NOV 12, 2024; 12:30:08

*RUN   1

@YEAR DOY   DAS   DAP    CNAD    GNAD    VNAD    GN%D    VN%D     NFXC    NUPC    LNAD    SNAD    LN%D    SN%D    SHND   RN%D   NFXD   SNN0C   SNN1C
*DSSAT Cropping System Model Ver. 1.2.3.004 -release    NOV 12, 2024; 12:30:08

*RUN   1

@YEAR DOY   DAS   DAP    CNAD    GNAD    VNAD    GN%D    VN%D     NFXC    NUPC    LNAD    SNAD    LN%D    SN%D    SHND   RN%D   NFXD   SNN0C   SNN1C
*DSSAT Cropping System Model Ver. 1.2.3.004 -release    NOV 12, 2024; 12:30:08

*RUN   1

@YEAR DOY   DAS   DAP    CNAD    GNAD    VNAD    GN%D    VN%D     NFXC    NUPC    LNAD    SNAD    LN%D    SN%D    SHND   RN%D   NFXD   SNN0C   SNN1C
*DSSAT Cropping System Model Ver. 1.2.3.004 -release    NOV 12, 2024; 12:30:08

*RUN   1

@YEAR DOY   DAS   DAP    CNAD    GNAD    VNAD    GN%D    VN%D     NFXC    NUPC    LNAD    SNAD    LN%D    SN%D    SHND   RN%D   NFXD   SNN0C   SNN1C
*DSSAT Cropping System Model Ver. 1.2.3.004 -release    NOV 12, 2024; 12:30:08

*RUN   1

@YEAR DOY   DAS   DAP    CNAD    GNAD    VNAD    GN%D    VN%D     NFXC    NUPC    LNAD    SNAD    LN%D    SN%D    SHND   RN%D   NFXD   SNN0C   SNN1C
*DSSAT Cropping System Model Ver. 1.2.3.004 -release    NOV 12, 2024; 12:30:08

*RUN   1

@YEAR DOY   DAS   DAP    CNAD    GNAD    VNAD    GN%D    VN%D     NFXC    NUPC    LNAD    SNAD    LN%D    SN%D    SHND   RN%D   NFXD   SNN0C   SNN1C
*DSSAT Cropping System Model Ver. 1.2.3.004 -release    NOV 12, 2024; 12:30:08

*RUN   1

@YEAR DOY   DAS   DAP    CNAD    GNAD    VNAD    GN%D    VN%D     NFXC    NUPC    LNAD    SNAD    LN%D    SN%D    SHND   RN%D   NFXD   SNN0C   SNN1C
*DSSAT Cropping System Model Ver. 1.2.3.004 -release    NOV 12, 2024; 12:30:08

*RUN   1

@YEAR DOY   DAS   DAP    CNAD    GNAD    VNAD    GN%D    VN%D     NFXC    NUPC    LNAD    SNAD    LN%D    SN%D    SHND   RN%D   NFXD   SNN0C   SNN1C
*DSSAT Cropping System Model Ver. 1.2.3.004 -release    NOV 12, 2024; 12:30:08

*RUN   1

@YEAR DOY   DAS   DAP    CNAD    GNAD    VNAD    GN%D    VN%D     NFXC    NUPC    LNAD    SNAD    LN%D    SN%D    SHND   RN%D   NFXD   SNN0C   SNN1C
*DSSAT Cropping System Model Ver. 1.2.3.004 -release    NOV 12, 2024; 12:30:08

*RUN   1

@YEAR DOY   DAS   DAP    CNAD    GNAD    VNAD    GN%D    VN%D     NFXC    NUPC    LNAD    SNAD    LN%D    SN%D    SHND   RN%D   NFXD   SNN0C   SNN1C
*DSSAT Cropping System Model Ver. 1.2.3.004 -release    NOV 12, 2024; 12:30:08

*RUN   1

@YEAR DOY   DAS   DAP    CNAD    GNAD    VNAD    GN%D    VN%D     NFXC    NUPC    LNAD    SNAD    LN%D    SN%D    SHND   RN%D   NFXD   SNN0C   SNN1C
*DSSAT Cropping System Model Ver. 1.2.3.004 -release    NOV 12, 2024; 12:30:08

*RUN   1

@YEAR DOY   DAS   DAP    CNAD    GNAD    VNAD    GN%D    VN%D     NFXC    NUPC    LNAD    SNAD    LN%D    SN%D    SHND   RN%D   NFXD   SNN0C   SNN1C
*DSSAT Cropping System Model Ver. 1.2.3.004 -release    NOV 12, 2024; 12:59:13

*RUN   1

@YEAR DOY   DAS   DAP    CNAD    GNAD    VNAD    GN%D    VN%D     NFXC    NUPC    LNAD    SNAD    LN%D    SN%D    SHND   RN%D   NFXD   SNN0C   SNN1C
*DSSAT Cropping System Model Ver. 1.2.3.004 -release    NOV 12, 2024; 12:59:13

*RUN   1

@YEAR DOY   DAS   DAP    CNAD    GNAD    VNAD    GN%D    VN%D     NFXC    NUPC    LNAD    SNAD    LN%D    SN%D    SHND   RN%D   NFXD   SNN0C   SNN1C
*DSSAT Cropping System Model Ver. 1.2.3.004 -release    NOV 12, 2024; 12:59:13

*RUN   1

@YEAR DOY   DAS   DAP    CNAD    GNAD    VNAD    GN%D    VN%D     NFXC    NUPC    LNAD    SNAD    LN%D    SN%D    SHND   RN%D   NFXD   SNN0C   SNN1C
*DSSAT Cropping System Model Ver. 1.2.3.004 -release    NOV 12, 2024; 12:59:13

*RUN   1

@YEAR DOY   DAS   DAP    CNAD    GNAD    VNAD    GN%D    VN%D     NFXC    NUPC    LNAD    SNAD    LN%D    SN%D    SHND   RN%D   NFXD   SNN0C   SNN1C
*DSSAT Cropping System Model Ver. 1.2.3.004 -release    NOV 12, 2024; 12:59:13

*RUN   1

@YEAR DOY   DAS   DAP    CNAD    GNAD    VNAD    GN%D    VN%D     NFXC    NUPC    LNAD    SNAD    LN%D    SN%D    SHND   RN%D   NFXD   SNN0C   SNN1C
*DSSAT Cropping System Model Ver. 1.2.3.004 -release    NOV 12, 2024; 12:59:13

*RUN   1

@YEAR DOY   DAS   DAP    CNAD    GNAD    VNAD    GN%D    VN%D     NFXC    NUPC    LNAD    SNAD    LN%D    SN%D    SHND   RN%D   NFXD   SNN0C   SNN1C
*DSSAT Cropping System Model Ver. 1.2.3.004 -release    NOV 12, 2024; 12:59:13

*RUN   1

@YEAR DOY   DAS   DAP    CNAD    GNAD    VNAD    GN%D    VN%D     NFXC    NUPC    LNAD    SNAD    LN%D    SN%D    SHND   RN%D   NFXD   SNN0C   SNN1C
*DSSAT Cropping System Model Ver. 1.2.3.004 -release    NOV 12, 2024; 12:59:13

*RUN   1

@YEAR DOY   DAS   DAP    CNAD    GNAD    VNAD    GN%D    VN%D     NFXC    NUPC    LNAD    SNAD    LN%D    SN%D    SHND   RN%D   NFXD   SNN0C   SNN1C
*DSSAT Cropping System Model Ver. 1.2.3.004 -release    NOV 12, 2024; 12:59:13

*RUN   1

@YEAR DOY   DAS   DAP    CNAD    GNAD    VNAD    GN%D    VN%D     NFXC    NUPC    LNAD    SNAD    LN%D    SN%D    SHND   RN%D   NFXD   SNN0C   SNN1C
*DSSAT Cropping System Model Ver. 1.2.3.004 -release    NOV 12, 2024; 12:59:13

*RUN   1

@YEAR DOY   DAS   DAP    CNAD    GNAD    VNAD    GN%D    VN%D     NFXC    NUPC    LNAD    SNAD    LN%D    SN%D    SHND   RN%D   NFXD   SNN0C   SNN1C
*DSSAT Cropping System Model Ver. 1.2.3.004 -release    NOV 12, 2024; 12:59:13

*RUN   1

@YEAR DOY   DAS   DAP    CNAD    GNAD    VNAD    GN%D    VN%D     NFXC    NUPC    LNAD    SNAD    LN%D    SN%D    SHND   RN%D   NFXD   SNN0C   SNN1C
*DSSAT Cropping System Model Ver. 1.2.3.004 -release    NOV 12, 2024; 12:59:13

*RUN   1

@YEAR DOY   DAS   DAP    CNAD    GNAD    VNAD    GN%D    VN%D     NFXC    NUPC    LNAD    SNAD    LN%D    SN%D    SHND   RN%D   NFXD   SNN0C   SNN1C
*DSSAT Cropping System Model Ver. 1.2.3.004 -release    NOV 12, 2024; 12:59:13

*RUN   1

@YEAR DOY   DAS   DAP    CNAD    GNAD    VNAD    GN%D    VN%D     NFXC    NUPC    LNAD    SNAD    LN%D    SN%D    SHND   RN%D   NFXD   SNN0C   SNN1C
*DSSAT Cropping System Model Ver. 1.2.3.004 -release    NOV 12, 2024; 12:59:14

*RUN   1

@YEAR DOY   DAS   DAP    CNAD    GNAD    VNAD    GN%D    VN%D     NFXC    NUPC    LNAD    SNAD    LN%D    SN%D    SHND   RN%D   NFXD   SNN0C   SNN1C
*DSSAT Cropping System Model Ver. 1.2.3.004 -release    NOV 12, 2024; 12:59:14

*RUN   1

@YEAR DOY   DAS   DAP    CNAD    GNAD    VNAD    GN%D    VN%D     NFXC    NUPC    LNAD    SNAD    LN%D    SN%D    SHND   RN%D   NFXD   SNN0C   SNN1C
*DSSAT Cropping System Model Ver. 1.2.3.004 -release    NOV 12, 2024; 12:59:14

*RUN   1

@YEAR DOY   DAS   DAP    CNAD    GNAD    VNAD    GN%D    VN%D     NFXC    NUPC    LNAD    SNAD    LN%D    SN%D    SHND   RN%D   NFXD   SNN0C   SNN1C
*DSSAT Cropping System Model Ver. 1.2.3.004 -release    NOV 12, 2024; 12:59:14

*RUN   1

@YEAR DOY   DAS   DAP    CNAD    GNAD    VNAD    GN%D    VN%D     NFXC    NUPC    LNAD    SNAD    LN%D    SN%D    SHND   RN%D   NFXD   SNN0C   SNN1C
*DSSAT Cropping System Model Ver. 1.2.3.004 -release    NOV 12, 2024; 12:59:14

*RUN   1

@YEAR DOY   DAS   DAP    CNAD    GNAD    VNAD    GN%D    VN%D     NFXC    NUPC    LNAD    SNAD    LN%D    SN%D    SHND   RN%D   NFXD   SNN0C   SNN1C
*DSSAT Cropping System Model Ver. 1.2.3.004 -release    NOV 12, 2024; 12:59:14

*RUN   1

@YEAR DOY   DAS   DAP    CNAD    GNAD    VNAD    GN%D    VN%D     NFXC    NUPC    LNAD    SNAD    LN%D    SN%D    SHND   RN%D   NFXD   SNN0C   SNN1C
*DSSAT Cropping System Model Ver. 1.2.3.004 -release    NOV 12, 2024; 12:59:14

*RUN   1

@YEAR DOY   DAS   DAP    CNAD    GNAD    VNAD    GN%D    VN%D     NFXC    NUPC    LNAD    SNAD    LN%D    SN%D    SHND   RN%D   NFXD   SNN0C   SNN1C
*DSSAT Cropping System Model Ver. 1.2.3.004 -release    NOV 12, 2024; 12:59:14

*RUN   1

@YEAR DOY   DAS   DAP    CNAD    GNAD    VNAD    GN%D    VN%D     NFXC    NUPC    LNAD    SNAD    LN%D    SN%D    SHND   RN%D   NFXD   SNN0C   SNN1C
