*PLANT C OUTPUT FILE
*DSSAT Cropping System Model Ver. 1.2.3.004 -release    NOV 12, 2024; 12:30:07

*RUN   1

@YEAR DOY   DAS   DAP   TWAD    PHAD    CMAD    CGRD    GRAD    MRAD    CHAD   CL%D   CS%D   TGNN   TGAV    GN%D    GL%D    GC%D
*DSSAT Cropping System Model Ver. 1.2.3.004 -release    NOV 12, 2024; 12:30:07

*RUN   1

@YEAR DOY   DAS   DAP   TWAD    PHAD    CMAD    CGRD    GRAD    MRAD    CHAD   CL%D   CS%D   TGNN   TGAV    GN%D    GL%D    GC%D
*DSSAT Cropping System Model Ver. 1.2.3.004 -release    NOV 12, 2024; 12:30:07

*RUN   1

@YEAR DOY   DAS   DAP   TWAD    PHAD    CMAD    CGRD    GRAD    MRAD    CHAD   CL%D   CS%D   TGNN   TGAV    GN%D    GL%D    GC%D
*DSSAT Cropping System Model Ver. 1.2.3.004 -release    NOV 12, 2024; 12:30:07

*RUN   1

@YEAR DOY   DAS   DAP   TWAD    PHAD    CMAD    CGRD    GRAD    MRAD    CHAD   CL%D   CS%D   TGNN   TGAV    GN%D    GL%D    GC%D
*DSSAT Cropping System Model Ver. 1.2.3.004 -release    NOV 12, 2024; 12:30:07

*RUN   1

@YEAR DOY   DAS   DAP   TWAD    PHAD    CMAD    CGRD    GRAD    MRAD    CHAD   CL%D   CS%D   TGNN   TGAV    GN%D    GL%D    GC%D
*DSSAT Cropping System Model Ver. 1.2.3.004 -release    NOV 12, 2024; 12:30:07

*RUN   1

@YEAR DOY   DAS   DAP   TWAD    PHAD    CMAD    CGRD    GRAD    MRAD    CHAD   CL%D   CS%D   TGNN   TGAV    GN%D    GL%D    GC%D
*DSSAT Cropping System Model Ver. 1.2.3.004 -release    NOV 12, 2024; 12:30:07

*RUN   1

@YEAR DOY   DAS   DAP   TWAD    PHAD    CMAD    CGRD    GRAD    MRAD    CHAD   CL%D   CS%D   TGNN   TGAV    GN%D    GL%D    GC%D
*DSSAT Cropping System Model Ver. 1.2.3.004 -release    NOV 12, 2024; 12:30:07

*RUN   1

@YEAR DOY   DAS   DAP   TWAD    PHAD    CMAD    CGRD    GRAD    MRAD    CHAD   CL%D   CS%D   TGNN   TGAV    GN%D    GL%D    GC%D
*DSSAT Cropping System Model Ver. 1.2.3.004 -release    NOV 12, 2024; 12:30:08

*RUN   1

@YEAR DOY   DAS   DAP   TWAD    PHAD    CMAD    CGRD    GRAD    MRAD    CHAD   CL%D   CS%D   TGNN   TGAV    GN%D    GL%D    GC%D
*DSSAT Cropping System Model Ver. 1.2.3.004 -release    NOV 12, 2024; 12:30:08

*RUN   1

@YEAR DOY   DAS   DAP   TWAD    PHAD    CMAD    CGRD    GRAD    MRAD    CHAD   CL%D   CS%D   TGNN   TGAV    GN%D    GL%D    GC%D
*DSSAT Cropping System Model Ver. 1.2.3.004 -release    NOV 12, 2024; 12:30:08

*RUN   1

@YEAR DOY   DAS   DAP   TWAD    PHAD    CMAD    CGRD    GRAD    MRAD    CHAD   CL%D   CS%D   TGNN   TGAV    GN%D    GL%D    GC%D
*DSSAT Cropping System Model Ver. 1.2.3.004 -release    NOV 12, 2024; 12:30:08

*RUN   1

@YEAR DOY   DAS   DAP   TWAD    PHAD    CMAD    CGRD    GRAD    MRAD    CHAD   CL%D   CS%D   TGNN   TGAV    GN%D    GL%D    GC%D
*DSSAT Cropping System Model Ver. 1.2.3.004 -release    NOV 12, 2024; 12:30:08

*RUN   1

@YEAR DOY   DAS   DAP   TWAD    PHAD    CMAD    CGRD    GRAD    MRAD    CHAD   CL%D   CS%D   TGNN   TGAV    GN%D    GL%D    GC%D
*DSSAT Cropping System Model Ver. 1.2.3.004 -release    NOV 12, 2024; 12:30:08

*RUN   1

@YEAR DOY   DAS   DAP   TWAD    PHAD    CMAD    CGRD    GRAD    MRAD    CHAD   CL%D   CS%D   TGNN   TGAV    GN%D    GL%D    GC%D
*DSSAT Cropping System Model Ver. 1.2.3.004 -release    NOV 12, 2024; 12:30:08

*RUN   1

@YEAR DOY   DAS   DAP   TWAD    PHAD    CMAD    CGRD    GRAD    MRAD    CHAD   CL%D   CS%D   TGNN   TGAV    GN%D    GL%D    GC%D
*DSSAT Cropping System Model Ver. 1.2.3.004 -release    NOV 12, 2024; 12:30:08

*RUN   1

@YEAR DOY   DAS   DAP   TWAD    PHAD    CMAD    CGRD    GRAD    MRAD    CHAD   CL%D   CS%D   TGNN   TGAV    GN%D    GL%D    GC%D
*DSSAT Cropping System Model Ver. 1.2.3.004 -release    NOV 12, 2024; 12:30:08

*RUN   1

@YEAR DOY   DAS   DAP   TWAD    PHAD    CMAD    CGRD    GRAD    MRAD    CHAD   CL%D   CS%D   TGNN   TGAV    GN%D    GL%D    GC%D
*DSSAT Cropping System Model Ver. 1.2.3.004 -release    NOV 12, 2024; 12:30:08

*RUN   1

@YEAR DOY   DAS   DAP   TWAD    PHAD    CMAD    CGRD    GRAD    MRAD    CHAD   CL%D   CS%D   TGNN   TGAV    GN%D    GL%D    GC%D
*DSSAT Cropping System Model Ver. 1.2.3.004 -release    NOV 12, 2024; 12:30:08

*RUN   1

@YEAR DOY   DAS   DAP   TWAD    PHAD    CMAD    CGRD    GRAD    MRAD    CHAD   CL%D   CS%D   TGNN   TGAV    GN%D    GL%D    GC%D
*DSSAT Cropping System Model Ver. 1.2.3.004 -release    NOV 12, 2024; 12:30:08

*RUN   1

@YEAR DOY   DAS   DAP   TWAD    PHAD    CMAD    CGRD    GRAD    MRAD    CHAD   CL%D   CS%D   TGNN   TGAV    GN%D    GL%D    GC%D
*DSSAT Cropping System Model Ver. 1.2.3.004 -release    NOV 12, 2024; 12:30:08

*RUN   1

@YEAR DOY   DAS   DAP   TWAD    PHAD    CMAD    CGRD    GRAD    MRAD    CHAD   CL%D   CS%D   TGNN   TGAV    GN%D    GL%D    GC%D
*DSSAT Cropping System Model Ver. 1.2.3.004 -release    NOV 12, 2024; 12:59:13

*RUN   1

@YEAR DOY   DAS   DAP   TWAD    PHAD    CMAD    CGRD    GRAD    MRAD    CHAD   CL%D   CS%D   TGNN   TGAV    GN%D    GL%D    GC%D
*DSSAT Cropping System Model Ver. 1.2.3.004 -release    NOV 12, 2024; 12:59:13

*RUN   1

@YEAR DOY   DAS   DAP   TWAD    PHAD    CMAD    CGRD    GRAD    MRAD    CHAD   CL%D   CS%D   TGNN   TGAV    GN%D    GL%D    GC%D
*DSSAT Cropping System Model Ver. 1.2.3.004 -release    NOV 12, 2024; 12:59:13

*RUN   1

@YEAR DOY   DAS   DAP   TWAD    PHAD    CMAD    CGRD    GRAD    MRAD    CHAD   CL%D   CS%D   TGNN   TGAV    GN%D    GL%D    GC%D
*DSSAT Cropping System Model Ver. 1.2.3.004 -release    NOV 12, 2024; 12:59:13

*RUN   1

@YEAR DOY   DAS   DAP   TWAD    PHAD    CMAD    CGRD    GRAD    MRAD    CHAD   CL%D   CS%D   TGNN   TGAV    GN%D    GL%D    GC%D
*DSSAT Cropping System Model Ver. 1.2.3.004 -release    NOV 12, 2024; 12:59:13

*RUN   1

@YEAR DOY   DAS   DAP   TWAD    PHAD    CMAD    CGRD    GRAD    MRAD    CHAD   CL%D   CS%D   TGNN   TGAV    GN%D    GL%D    GC%D
*DSSAT Cropping System Model Ver. 1.2.3.004 -release    NOV 12, 2024; 12:59:13

*RUN   1

@YEAR DOY   DAS   DAP   TWAD    PHAD    CMAD    CGRD    GRAD    MRAD    CHAD   CL%D   CS%D   TGNN   TGAV    GN%D    GL%D    GC%D
*DSSAT Cropping System Model Ver. 1.2.3.004 -release    NOV 12, 2024; 12:59:13

*RUN   1

@YEAR DOY   DAS   DAP   TWAD    PHAD    CMAD    CGRD    GRAD    MRAD    CHAD   CL%D   CS%D   TGNN   TGAV    GN%D    GL%D    GC%D
*DSSAT Cropping System Model Ver. 1.2.3.004 -release    NOV 12, 2024; 12:59:13

*RUN   1

@YEAR DOY   DAS   DAP   TWAD    PHAD    CMAD    CGRD    GRAD    MRAD    CHAD   CL%D   CS%D   TGNN   TGAV    GN%D    GL%D    GC%D
*DSSAT Cropping System Model Ver. 1.2.3.004 -release    NOV 12, 2024; 12:59:13

*RUN   1

@YEAR DOY   DAS   DAP   TWAD    PHAD    CMAD    CGRD    GRAD    MRAD    CHAD   CL%D   CS%D   TGNN   TGAV    GN%D    GL%D    GC%D
*DSSAT Cropping System Model Ver. 1.2.3.004 -release    NOV 12, 2024; 12:59:13

*RUN   1

@YEAR DOY   DAS   DAP   TWAD    PHAD    CMAD    CGRD    GRAD    MRAD    CHAD   CL%D   CS%D   TGNN   TGAV    GN%D    GL%D    GC%D
*DSSAT Cropping System Model Ver. 1.2.3.004 -release    NOV 12, 2024; 12:59:13

*RUN   1

@YEAR DOY   DAS   DAP   TWAD    PHAD    CMAD    CGRD    GRAD    MRAD    CHAD   CL%D   CS%D   TGNN   TGAV    GN%D    GL%D    GC%D
*DSSAT Cropping System Model Ver. 1.2.3.004 -release    NOV 12, 2024; 12:59:13

*RUN   1

@YEAR DOY   DAS   DAP   TWAD    PHAD    CMAD    CGRD    GRAD    MRAD    CHAD   CL%D   CS%D   TGNN   TGAV    GN%D    GL%D    GC%D
*DSSAT Cropping System Model Ver. 1.2.3.004 -release    NOV 12, 2024; 12:59:13

*RUN   1

@YEAR DOY   DAS   DAP   TWAD    PHAD    CMAD    CGRD    GRAD    MRAD    CHAD   CL%D   CS%D   TGNN   TGAV    GN%D    GL%D    GC%D
*DSSAT Cropping System Model Ver. 1.2.3.004 -release    NOV 12, 2024; 12:59:14

*RUN   1

@YEAR DOY   DAS   DAP   TWAD    PHAD    CMAD    CGRD    GRAD    MRAD    CHAD   CL%D   CS%D   TGNN   TGAV    GN%D    GL%D    GC%D
*DSSAT Cropping System Model Ver. 1.2.3.004 -release    NOV 12, 2024; 12:59:14

*RUN   1

@YEAR DOY   DAS   DAP   TWAD    PHAD    CMAD    CGRD    GRAD    MRAD    CHAD   CL%D   CS%D   TGNN   TGAV    GN%D    GL%D    GC%D
*DSSAT Cropping System Model Ver. 1.2.3.004 -release    NOV 12, 2024; 12:59:14

*RUN   1

@YEAR DOY   DAS   DAP   TWAD    PHAD    CMAD    CGRD    GRAD    MRAD    CHAD   CL%D   CS%D   TGNN   TGAV    GN%D    GL%D    GC%D
*DSSAT Cropping System Model Ver. 1.2.3.004 -release    NOV 12, 2024; 12:59:14

*RUN   1

@YEAR DOY   DAS   DAP   TWAD    PHAD    CMAD    CGRD    GRAD    MRAD    CHAD   CL%D   CS%D   TGNN   TGAV    GN%D    GL%D    GC%D
*DSSAT Cropping System Model Ver. 1.2.3.004 -release    NOV 12, 2024; 12:59:14

*RUN   1

@YEAR DOY   DAS   DAP   TWAD    PHAD    CMAD    CGRD    GRAD    MRAD    CHAD   CL%D   CS%D   TGNN   TGAV    GN%D    GL%D    GC%D
*DSSAT Cropping System Model Ver. 1.2.3.004 -release    NOV 12, 2024; 12:59:14

*RUN   1

@YEAR DOY   DAS   DAP   TWAD    PHAD    CMAD    CGRD    GRAD    MRAD    CHAD   CL%D   CS%D   TGNN   TGAV    GN%D    GL%D    GC%D
*DSSAT Cropping System Model Ver. 1.2.3.004 -release    NOV 12, 2024; 12:59:14

*RUN   1

@YEAR DOY   DAS   DAP   TWAD    PHAD    CMAD    CGRD    GRAD    MRAD    CHAD   CL%D   CS%D   TGNN   TGAV    GN%D    GL%D    GC%D
*DSSAT Cropping System Model Ver. 1.2.3.004 -release    NOV 12, 2024; 12:59:14

*RUN   1

@YEAR DOY   DAS   DAP   TWAD    PHAD    CMAD    CGRD    GRAD    MRAD    CHAD   CL%D   CS%D   TGNN   TGAV    GN%D    GL%D    GC%D
