*WARNING DETAIL FILE

******************************************************************************
*DSSAT Cropping System Model Ver. 1.2.3.004 -release    NOV 12, 2024; 12:28:04

*RUN   0


******************************************************************************
*DSSAT Cropping System Model Ver. 1.2.3.004 -release    NOV 12, 2024; 12:28:49

*RUN   0


******************************************************************************
*DSSAT Cropping System Model Ver. 1.2.3.004 -release    NOV 12, 2024; 12:29:50

*RUN   0


******************************************************************************
*DSSAT Cropping System Model Ver. 1.2.3.004 -release    NOV 12, 2024; 12:30:07

*RUN   0


******************************************************************************
*DSSAT Cropping System Model Ver. 1.2.3.004 -release    NOV 12, 2024; 12:59:13

*RUN   0


******************************************************************************
*DSSAT Cropping System Model Ver. 1.2.3.004 -release    DEC 12, 2024; 10:52:42

*RUN   0


******************************************************************************
*DSSAT Cropping System Model Ver. 1.2.3.004 -release    DEC 12, 2024; 10:53:14

*RUN   0


******************************************************************************
*DSSAT Cropping System Model Ver. 1.2.3.004 -release    APR 09, 2025; 12:33:52

*RUN   0


******************************************************************************
*DSSAT Cropping System Model Ver. 1.2.3.004 -release    APR 09, 2025; 12:38:56

*RUN   0


******************************************************************************
*DSSAT Cropping System Model Ver. 1.2.3.004 -release    APR 09, 2025; 13:03:38

*RUN   0

